/*---------------------------------------------------------------------------*\
| =========                 |                                                 |
| \\      /  F ield         | OpenFOAM: The Open Source CFD Toolbox           |
|  \\    /   O peration     | Version:  2112                                  |
|   \\  /    A nd           | Website:  www.openfoam.com                      |
|    \\/     M anipulation  |                                                 |
\*---------------------------------------------------------------------------*/
Build  : _14aeaf8dab-20211220 OPENFOAM=2112 version=v2112
Arch   : "LSB;label=32;scalar=64"
Exec   : icoFoam
Date   : Jan 11 2023
Time   : 17:37:10
Host   : dia-Precision-7920-Tower
PID    : 563509
I/O    : uncollated
Case   : /home/corsi/OpenFOAM/corsi-v2112/run/RODOLFO/Fluid-dynamics/cavity
nProcs : 1
trapFpe: Floating point exception trapping enabled (FOAM_SIGFPE).
fileModificationChecking : Monitoring run-time modified files using timeStampMaster (fileModificationSkew 5, maxFileModificationPolls 20)
allowSystemOperations : Allowing user-supplied system call operations

// * * * * * * * * * * * * * * * * * * * * * * * * * * * * * * * * * * * * * //
Create time

Create mesh for time = 0


PISO: Operating solver in PISO mode

Reading transportProperties

Reading field p

Reading field U

Reading/calculating face flux field phi


Starting time loop

Time = 0.0006

Courant Number mean: 0 max: 0
smoothSolver:  Solving for Ux, Initial residual = 1, Final residual = 8.66815e-06, No Iterations 3
smoothSolver:  Solving for Uy, Initial residual = 0, Final residual = 0, No Iterations 0
DICPCG:  Solving for p, Initial residual = 1, Final residual = 0.0478068, No Iterations 160
time step continuity errors : sum local = 7.51397e-07, global = -1.27117e-21, cumulative = -1.27117e-21
DICPCG:  Solving for p, Initial residual = 0.160646, Final residual = 9.02354e-07, No Iterations 221
time step continuity errors : sum local = 3.05349e-11, global = -1.51159e-22, cumulative = -1.42233e-21
ExecutionTime = 0.34 s  ClockTime = 1 s

Time = 0.0012

Courant Number mean: 0.00252101 max: 0.117951
smoothSolver:  Solving for Ux, Initial residual = 0.306453, Final residual = 4.03003e-06, No Iterations 3
smoothSolver:  Solving for Uy, Initial residual = 0.330426, Final residual = 6.53661e-06, No Iterations 3
DICPCG:  Solving for p, Initial residual = 0.131449, Final residual = 0.00646274, No Iterations 152
time step continuity errors : sum local = 2.22084e-07, global = 4.57534e-22, cumulative = -9.64794e-22
DICPCG:  Solving for p, Initial residual = 0.0257559, Final residual = 9.24139e-07, No Iterations 200
time step continuity errors : sum local = 3.43009e-11, global = 6.06065e-21, cumulative = 5.09586e-21
ExecutionTime = 0.5 s  ClockTime = 1 s

Time = 0.0018

Courant Number mean: 0.00465608 max: 0.210087
smoothSolver:  Solving for Ux, Initial residual = 0.170475, Final residual = 2.18896e-06, No Iterations 3
smoothSolver:  Solving for Uy, Initial residual = 0.185555, Final residual = 3.67712e-06, No Iterations 3
DICPCG:  Solving for p, Initial residual = 0.0889473, Final residual = 0.00388685, No Iterations 153
time step continuity errors : sum local = 1.54353e-07, global = 1.22744e-21, cumulative = 6.32329e-21
DICPCG:  Solving for p, Initial residual = 0.0195774, Final residual = 9.9607e-07, No Iterations 196
time step continuity errors : sum local = 4.20663e-11, global = 3.58452e-22, cumulative = 6.68174e-21
ExecutionTime = 0.67 s  ClockTime = 1 s

Time = 0.0024

Courant Number mean: 0.00648776 max: 0.282585
smoothSolver:  Solving for Ux, Initial residual = 0.113572, Final residual = 1.43669e-06, No Iterations 3
smoothSolver:  Solving for Uy, Initial residual = 0.123845, Final residual = 2.45873e-06, No Iterations 3
DICPCG:  Solving for p, Initial residual = 0.0777308, Final residual = 0.00374628, No Iterations 77
time step continuity errors : sum local = 1.89833e-07, global = 8.31483e-21, cumulative = 1.49966e-20
DICPCG:  Solving for p, Initial residual = 0.0172597, Final residual = 9.65938e-07, No Iterations 195
time step continuity errors : sum local = 4.54341e-11, global = -4.46401e-21, cumulative = 1.05326e-20
ExecutionTime = 0.81 s  ClockTime = 1 s

Time = 0.003

Courant Number mean: 0.00809243 max: 0.3401
smoothSolver:  Solving for Ux, Initial residual = 0.0829623, Final residual = 1.04615e-06, No Iterations 3
smoothSolver:  Solving for Uy, Initial residual = 0.0904753, Final residual = 1.7998e-06, No Iterations 3
DICPCG:  Solving for p, Initial residual = 0.0674361, Final residual = 0.0030731, No Iterations 76
time step continuity errors : sum local = 1.637e-07, global = 6.22495e-21, cumulative = 1.67575e-20
DICPCG:  Solving for p, Initial residual = 0.0147935, Final residual = 9.82431e-07, No Iterations 194
time step continuity errors : sum local = 5.0296e-11, global = 3.99234e-20, cumulative = 5.66809e-20
ExecutionTime = 0.94 s  ClockTime = 1 s

Time = 0.0036

Courant Number mean: 0.0095142 max: 0.386128
smoothSolver:  Solving for Ux, Initial residual = 0.0640803, Final residual = 8.20535e-07, No Iterations 3
smoothSolver:  Solving for Uy, Initial residual = 0.0698904, Final residual = 1.39293e-06, No Iterations 3
DICPCG:  Solving for p, Initial residual = 0.0576795, Final residual = 0.00237161, No Iterations 76
time step continuity errors : sum local = 1.38017e-07, global = -2.68353e-20, cumulative = 2.98456e-20
DICPCG:  Solving for p, Initial residual = 0.0124674, Final residual = 9.34071e-07, No Iterations 193
time step continuity errors : sum local = 5.16027e-11, global = 3.19578e-20, cumulative = 6.18034e-20
ExecutionTime = 1.07 s  ClockTime = 1 s

Time = 0.0042

Courant Number mean: 0.0107868 max: 0.423301
smoothSolver:  Solving for Ux, Initial residual = 0.0515454, Final residual = 6.93484e-07, No Iterations 3
smoothSolver:  Solving for Uy, Initial residual = 0.0562206, Final residual = 1.12211e-06, No Iterations 3
DICPCG:  Solving for p, Initial residual = 0.0503783, Final residual = 0.00232482, No Iterations 75
time step continuity errors : sum local = 1.42355e-07, global = -1.49468e-20, cumulative = 4.68566e-20
DICPCG:  Solving for p, Initial residual = 0.0110984, Final residual = 9.62921e-07, No Iterations 191
time step continuity errors : sum local = 5.69753e-11, global = 1.75101e-20, cumulative = 6.43667e-20
ExecutionTime = 1.2 s  ClockTime = 1 s

Time = 0.0048

Courant Number mean: 0.011936 max: 0.453611
smoothSolver:  Solving for Ux, Initial residual = 0.0427732, Final residual = 6.08194e-07, No Iterations 3
smoothSolver:  Solving for Uy, Initial residual = 0.046605, Final residual = 9.3126e-07, No Iterations 3
DICPCG:  Solving for p, Initial residual = 0.0448213, Final residual = 0.00222814, No Iterations 74
time step continuity errors : sum local = 1.43943e-07, global = -3.79238e-21, cumulative = 6.05743e-20
DICPCG:  Solving for p, Initial residual = 0.00974345, Final residual = 9.77301e-07, No Iterations 189
time step continuity errors : sum local = 6.16425e-11, global = -1.10772e-20, cumulative = 4.94971e-20
ExecutionTime = 1.34 s  ClockTime = 2 s

Time = 0.0054

Courant Number mean: 0.0129831 max: 0.478568
smoothSolver:  Solving for Ux, Initial residual = 0.0363434, Final residual = 5.46264e-07, No Iterations 3
smoothSolver:  Solving for Uy, Initial residual = 0.0395689, Final residual = 7.91277e-07, No Iterations 3
DICPCG:  Solving for p, Initial residual = 0.0372544, Final residual = 0.00179184, No Iterations 74
time step continuity errors : sum local = 1.22504e-07, global = 4.71041e-21, cumulative = 5.42075e-20
DICPCG:  Solving for p, Initial residual = 0.00878537, Final residual = 9.87328e-07, No Iterations 187
time step continuity errors : sum local = 6.55734e-11, global = 2.73165e-20, cumulative = 8.1524e-20
ExecutionTime = 1.45 s  ClockTime = 2 s

Time = 0.006

Courant Number mean: 0.0139429 max: 0.499323
smoothSolver:  Solving for Ux, Initial residual = 0.0314719, Final residual = 4.98303e-07, No Iterations 3
smoothSolver:  Solving for Uy, Initial residual = 0.0342363, Final residual = 6.84997e-07, No Iterations 3
DICPCG:  Solving for p, Initial residual = 0.0302214, Final residual = 0.00147546, No Iterations 74
time step continuity errors : sum local = 1.05474e-07, global = 1.47424e-20, cumulative = 9.62663e-20
DICPCG:  Solving for p, Initial residual = 0.00732817, Final residual = 9.98398e-07, No Iterations 186
time step continuity errors : sum local = 6.90109e-11, global = -5.84995e-21, cumulative = 9.04164e-20
ExecutionTime = 1.54 s  ClockTime = 2 s

Time = 0.0066

Courant Number mean: 0.0148375 max: 0.516758
smoothSolver:  Solving for Ux, Initial residual = 0.0276803, Final residual = 4.59469e-07, No Iterations 3
smoothSolver:  Solving for Uy, Initial residual = 0.0300877, Final residual = 6.02256e-07, No Iterations 3
DICPCG:  Solving for p, Initial residual = 0.0284114, Final residual = 0.00139928, No Iterations 73
time step continuity errors : sum local = 1.03179e-07, global = -1.19241e-20, cumulative = 7.84923e-20
DICPCG:  Solving for p, Initial residual = 0.0068455, Final residual = 8.91403e-07, No Iterations 186
time step continuity errors : sum local = 6.39677e-11, global = -9.52951e-21, cumulative = 6.89628e-20
ExecutionTime = 1.62 s  ClockTime = 2 s

Time = 0.0072

Courant Number mean: 0.0156771 max: 0.531548
smoothSolver:  Solving for Ux, Initial residual = 0.0246801, Final residual = 4.26576e-07, No Iterations 3
smoothSolver:  Solving for Uy, Initial residual = 0.0267918, Final residual = 5.36296e-07, No Iterations 3
DICPCG:  Solving for p, Initial residual = 0.0258797, Final residual = 0.00117758, No Iterations 73
time step continuity errors : sum local = 8.99346e-08, global = -3.05766e-20, cumulative = 3.83862e-20
DICPCG:  Solving for p, Initial residual = 0.00623429, Final residual = 8.04073e-07, No Iterations 186
time step continuity errors : sum local = 5.96818e-11, global = -1.87039e-20, cumulative = 1.96823e-20
ExecutionTime = 1.71 s  ClockTime = 2 s

Time = 0.0078

Courant Number mean: 0.0164676 max: 0.544217
smoothSolver:  Solving for Ux, Initial residual = 0.0222462, Final residual = 3.97985e-07, No Iterations 3
smoothSolver:  Solving for Uy, Initial residual = 0.0241191, Final residual = 4.82695e-07, No Iterations 3
DICPCG:  Solving for p, Initial residual = 0.0234381, Final residual = 0.00101209, No Iterations 73
time step continuity errors : sum local = 7.97215e-08, global = -3.23125e-20, cumulative = -1.26303e-20
DICPCG:  Solving for p, Initial residual = 0.00567488, Final residual = 9.27181e-07, No Iterations 185
time step continuity errors : sum local = 7.09216e-11, global = 6.96306e-21, cumulative = -5.66719e-21
ExecutionTime = 1.79 s  ClockTime = 2 s

Time = 0.0084

Courant Number mean: 0.0172147 max: 0.555172
smoothSolver:  Solving for Ux, Initial residual = 0.0202339, Final residual = 3.72839e-07, No Iterations 3
smoothSolver:  Solving for Uy, Initial residual = 0.021919, Final residual = 4.38407e-07, No Iterations 3
DICPCG:  Solving for p, Initial residual = 0.0214557, Final residual = 0.00103867, No Iterations 72
time step continuity errors : sum local = 8.34816e-08, global = 7.46273e-21, cumulative = 1.79554e-21
DICPCG:  Solving for p, Initial residual = 0.00533754, Final residual = 8.42727e-07, No Iterations 185
time step continuity errors : sum local = 6.62034e-11, global = -1.08646e-20, cumulative = -9.06902e-21
ExecutionTime = 1.88 s  ClockTime = 2 s

Time = 0.009

Courant Number mean: 0.0179228 max: 0.564729
smoothSolver:  Solving for Ux, Initial residual = 0.0185446, Final residual = 3.50528e-07, No Iterations 3
smoothSolver:  Solving for Uy, Initial residual = 0.0200879, Final residual = 4.01276e-07, No Iterations 3
DICPCG:  Solving for p, Initial residual = 0.0204115, Final residual = 0.000903307, No Iterations 72
time step continuity errors : sum local = 7.4435e-08, global = -1.57872e-20, cumulative = -2.48562e-20
DICPCG:  Solving for p, Initial residual = 0.00497279, Final residual = 8.98043e-07, No Iterations 184
time step continuity errors : sum local = 7.22726e-11, global = 1.4102e-20, cumulative = -1.07542e-20
ExecutionTime = 1.96 s  ClockTime = 2 s

Time = 0.0096

Courant Number mean: 0.0185968 max: 0.573138
smoothSolver:  Solving for Ux, Initial residual = 0.0171088, Final residual = 3.30612e-07, No Iterations 3
smoothSolver:  Solving for Uy, Initial residual = 0.0185385, Final residual = 3.69758e-07, No Iterations 3
DICPCG:  Solving for p, Initial residual = 0.0192475, Final residual = 0.000916128, No Iterations 71
time step continuity errors : sum local = 7.65858e-08, global = -2.59816e-20, cumulative = -3.67359e-20
DICPCG:  Solving for p, Initial residual = 0.00458845, Final residual = 9.82503e-07, No Iterations 183
time step continuity errors : sum local = 8.03107e-11, global = 3.38667e-20, cumulative = -2.86918e-21
ExecutionTime = 2.04 s  ClockTime = 2 s

Time = 0.0102

Courant Number mean: 0.0192393 max: 0.580596
smoothSolver:  Solving for Ux, Initial residual = 0.0158788, Final residual = 3.12756e-07, No Iterations 3
smoothSolver:  Solving for Uy, Initial residual = 0.01721, Final residual = 3.42741e-07, No Iterations 3
DICPCG:  Solving for p, Initial residual = 0.018038, Final residual = 0.000895421, No Iterations 70
time step continuity errors : sum local = 7.60276e-08, global = -1.03532e-20, cumulative = -1.32224e-20
DICPCG:  Solving for p, Initial residual = 0.00458806, Final residual = 9.01739e-07, No Iterations 183
time step continuity errors : sum local = 7.53601e-11, global = -1.84127e-21, cumulative = -1.50636e-20
ExecutionTime = 2.13 s  ClockTime = 2 s

Time = 0.0108

Courant Number mean: 0.0198538 max: 0.58726
smoothSolver:  Solving for Ux, Initial residual = 0.0148194, Final residual = 2.96736e-07, No Iterations 3
smoothSolver:  Solving for Uy, Initial residual = 0.0160608, Final residual = 3.19326e-07, No Iterations 3
DICPCG:  Solving for p, Initial residual = 0.0170496, Final residual = 0.000806012, No Iterations 70
time step continuity errors : sum local = 6.97965e-08, global = 1.49276e-21, cumulative = -1.35709e-20
DICPCG:  Solving for p, Initial residual = 0.00431932, Final residual = 8.3316e-07, No Iterations 183
time step continuity errors : sum local = 7.09015e-11, global = -1.19301e-20, cumulative = -2.55009e-20
ExecutionTime = 2.21 s  ClockTime = 2 s

Time = 0.0114

Courant Number mean: 0.0204426 max: 0.593255
smoothSolver:  Solving for Ux, Initial residual = 0.0138977, Final residual = 2.82394e-07, No Iterations 3
smoothSolver:  Solving for Uy, Initial residual = 0.0150573, Final residual = 2.98854e-07, No Iterations 3
DICPCG:  Solving for p, Initial residual = 0.0163581, Final residual = 0.000804951, No Iterations 69
time step continuity errors : sum local = 7.07143e-08, global = -2.23532e-20, cumulative = -4.78541e-20
DICPCG:  Solving for p, Initial residual = 0.00419321, Final residual = 9.35537e-07, No Iterations 182
time step continuity errors : sum local = 8.09727e-11, global = 2.63492e-20, cumulative = -2.15049e-20
ExecutionTime = 2.29 s  ClockTime = 3 s

Time = 0.012

Courant Number mean: 0.0210089 max: 0.598682
smoothSolver:  Solving for Ux, Initial residual = 0.0130849, Final residual = 9.55451e-06, No Iterations 2
smoothSolver:  Solving for Uy, Initial residual = 0.0141744, Final residual = 2.80793e-07, No Iterations 3
DICPCG:  Solving for p, Initial residual = 0.0156627, Final residual = 0.000736067, No Iterations 69
time step continuity errors : sum local = 6.56702e-08, global = 4.35912e-21, cumulative = -1.71458e-20
DICPCG:  Solving for p, Initial residual = 0.00399784, Final residual = 8.66856e-07, No Iterations 182
time step continuity errors : sum local = 7.61749e-11, global = -1.8724e-20, cumulative = -3.58698e-20
ExecutionTime = 2.37 s  ClockTime = 3 s

Time = 0.0126

Courant Number mean: 0.0215594 max: 0.603625
smoothSolver:  Solving for Ux, Initial residual = 0.0123614, Final residual = 9.10139e-06, No Iterations 2
smoothSolver:  Solving for Uy, Initial residual = 0.0133898, Final residual = 9.72291e-06, No Iterations 2
DICPCG:  Solving for p, Initial residual = 0.014986, Final residual = 0.000678217, No Iterations 69
time step continuity errors : sum local = 6.13787e-08, global = -1.89551e-20, cumulative = -5.48249e-20
DICPCG:  Solving for p, Initial residual = 0.00381631, Final residual = 9.8369e-07, No Iterations 181
time step continuity errors : sum local = 8.75971e-11, global = -1.8793e-20, cumulative = -7.36179e-20
ExecutionTime = 2.46 s  ClockTime = 3 s

Time = 0.0132

Courant Number mean: 0.0220941 max: 0.608149
smoothSolver:  Solving for Ux, Initial residual = 0.0117112, Final residual = 8.68132e-06, No Iterations 2
smoothSolver:  Solving for Uy, Initial residual = 0.0126903, Final residual = 9.19868e-06, No Iterations 2
DICPCG:  Solving for p, Initial residual = 0.0143216, Final residual = 0.000699497, No Iterations 68
time step continuity errors : sum local = 6.39011e-08, global = 2.42646e-20, cumulative = -4.93533e-20
DICPCG:  Solving for p, Initial residual = 0.00375317, Final residual = 9.13562e-07, No Iterations 181
time step continuity errors : sum local = 8.23356e-11, global = -5.79588e-21, cumulative = -5.51492e-20
ExecutionTime = 2.54 s  ClockTime = 3 s

Time = 0.0138

Courant Number mean: 0.0226131 max: 0.612311
smoothSolver:  Solving for Ux, Initial residual = 0.0111233, Final residual = 8.29121e-06, No Iterations 2
smoothSolver:  Solving for Uy, Initial residual = 0.0120628, Final residual = 8.72711e-06, No Iterations 2
DICPCG:  Solving for p, Initial residual = 0.0137855, Final residual = 0.000651213, No Iterations 68
time step continuity errors : sum local = 6.01444e-08, global = -1.09239e-21, cumulative = -5.62416e-20
DICPCG:  Solving for p, Initial residual = 0.00365133, Final residual = 8.54608e-07, No Iterations 181
time step continuity errors : sum local = 7.78469e-11, global = 1.97348e-20, cumulative = -3.65068e-20
ExecutionTime = 2.62 s  ClockTime = 3 s

Time = 0.0144

Courant Number mean: 0.0231169 max: 0.616156
smoothSolver:  Solving for Ux, Initial residual = 0.010589, Final residual = 7.92821e-06, No Iterations 2
smoothSolver:  Solving for Uy, Initial residual = 0.0114955, Final residual = 8.30128e-06, No Iterations 2
DICPCG:  Solving for p, Initial residual = 0.013289, Final residual = 0.000662332, No Iterations 67
time step continuity errors : sum local = 6.16247e-08, global = 3.33256e-21, cumulative = -3.31743e-20
DICPCG:  Solving for p, Initial residual = 0.00358517, Final residual = 9.57329e-07, No Iterations 180
time step continuity errors : sum local = 8.79955e-11, global = 2.63547e-20, cumulative = -6.81953e-21
ExecutionTime = 2.69 s  ClockTime = 3 s

Time = 0.015

Courant Number mean: 0.0236064 max: 0.619723
smoothSolver:  Solving for Ux, Initial residual = 0.0101038, Final residual = 7.58959e-06, No Iterations 2
smoothSolver:  Solving for Uy, Initial residual = 0.0109812, Final residual = 7.91443e-06, No Iterations 2
DICPCG:  Solving for p, Initial residual = 0.0129285, Final residual = 0.000614818, No Iterations 67
time step continuity errors : sum local = 5.77301e-08, global = -1.79523e-20, cumulative = -2.47719e-20
DICPCG:  Solving for p, Initial residual = 0.00349165, Final residual = 9.06973e-07, No Iterations 180
time step continuity errors : sum local = 8.41273e-11, global = 1.63394e-20, cumulative = -8.43246e-21
ExecutionTime = 2.77 s  ClockTime = 3 s

Time = 0.0156

Courant Number mean: 0.0240821 max: 0.623044
smoothSolver:  Solving for Ux, Initial residual = 0.00966439, Final residual = 7.27329e-06, No Iterations 2
smoothSolver:  Solving for Uy, Initial residual = 0.0105124, Final residual = 7.56155e-06, No Iterations 2
DICPCG:  Solving for p, Initial residual = 0.0125721, Final residual = 0.000599105, No Iterations 66
time step continuity errors : sum local = 5.66707e-08, global = -4.54107e-21, cumulative = -1.29735e-20
DICPCG:  Solving for p, Initial residual = 0.00340201, Final residual = 9.95756e-07, No Iterations 178
time step continuity errors : sum local = 9.31363e-11, global = 2.8802e-21, cumulative = -1.00933e-20
ExecutionTime = 2.85 s  ClockTime = 3 s

Time = 0.0162

Courant Number mean: 0.024545 max: 0.626147
smoothSolver:  Solving for Ux, Initial residual = 0.00926257, Final residual = 6.97694e-06, No Iterations 2
smoothSolver:  Solving for Uy, Initial residual = 0.0100832, Final residual = 7.23875e-06, No Iterations 2
DICPCG:  Solving for p, Initial residual = 0.0122654, Final residual = 0.000607948, No Iterations 65
time step continuity errors : sum local = 5.78814e-08, global = -1.02839e-20, cumulative = -2.03773e-20
DICPCG:  Solving for p, Initial residual = 0.00334306, Final residual = 9.36718e-07, No Iterations 178
time step continuity errors : sum local = 8.83317e-11, global = 3.98933e-21, cumulative = -1.63879e-20
ExecutionTime = 2.93 s  ClockTime = 3 s

Time = 0.0168

Courant Number mean: 0.0249955 max: 0.629053
smoothSolver:  Solving for Ux, Initial residual = 0.00889323, Final residual = 6.69897e-06, No Iterations 2
smoothSolver:  Solving for Uy, Initial residual = 0.00968826, Final residual = 6.94242e-06, No Iterations 2
DICPCG:  Solving for p, Initial residual = 0.0125301, Final residual = 0.000574821, No Iterations 65
time step continuity errors : sum local = 5.51632e-08, global = -3.31038e-20, cumulative = -4.94918e-20
DICPCG:  Solving for p, Initial residual = 0.00330135, Final residual = 9.65542e-07, No Iterations 177
time step continuity errors : sum local = 9.17591e-11, global = -3.13118e-21, cumulative = -5.26229e-20
ExecutionTime = 3.01 s  ClockTime = 3 s

Time = 0.0174

Courant Number mean: 0.0254348 max: 0.631785
smoothSolver:  Solving for Ux, Initial residual = 0.00855201, Final residual = 6.43794e-06, No Iterations 2
smoothSolver:  Solving for Uy, Initial residual = 0.00932423, Final residual = 6.66823e-06, No Iterations 2
DICPCG:  Solving for p, Initial residual = 0.0116697, Final residual = 0.000538055, No Iterations 65
time step continuity errors : sum local = 5.20489e-08, global = 6.03137e-21, cumulative = -4.65916e-20
DICPCG:  Solving for p, Initial residual = 0.00314942, Final residual = 9.33651e-07, No Iterations 177
time step continuity errors : sum local = 8.94649e-11, global = -1.25444e-20, cumulative = -5.9136e-20
ExecutionTime = 3.09 s  ClockTime = 3 s

Time = 0.018

Courant Number mean: 0.0258632 max: 0.634358
smoothSolver:  Solving for Ux, Initial residual = 0.00823649, Final residual = 6.1932e-06, No Iterations 2
smoothSolver:  Solving for Uy, Initial residual = 0.00898919, Final residual = 6.4147e-06, No Iterations 2
DICPCG:  Solving for p, Initial residual = 0.0120228, Final residual = 0.000589284, No Iterations 64
time step continuity errors : sum local = 5.73247e-08, global = 2.69521e-21, cumulative = -5.64408e-20
DICPCG:  Solving for p, Initial residual = 0.00309978, Final residual = 8.685e-07, No Iterations 177
time step continuity errors : sum local = 8.38726e-11, global = 3.36699e-20, cumulative = -2.27709e-20
ExecutionTime = 3.17 s  ClockTime = 3 s

Time = 0.0186

Courant Number mean: 0.0262807 max: 0.636788
smoothSolver:  Solving for Ux, Initial residual = 0.00794285, Final residual = 5.96455e-06, No Iterations 2
smoothSolver:  Solving for Uy, Initial residual = 0.00867713, Final residual = 6.17966e-06, No Iterations 2
DICPCG:  Solving for p, Initial residual = 0.0116757, Final residual = 0.000569521, No Iterations 64
time step continuity errors : sum local = 5.58121e-08, global = -9.53261e-22, cumulative = -2.37242e-20
DICPCG:  Solving for p, Initial residual = 0.00307395, Final residual = 9.58929e-07, No Iterations 176
time step continuity errors : sum local = 9.33131e-11, global = 3.24166e-20, cumulative = 8.69244e-21
ExecutionTime = 3.25 s  ClockTime = 3 s

Time = 0.0192

Courant Number mean: 0.0266884 max: 0.639088
smoothSolver:  Solving for Ux, Initial residual = 0.00766871, Final residual = 5.75008e-06, No Iterations 2
smoothSolver:  Solving for Uy, Initial residual = 0.00838554, Final residual = 5.96135e-06, No Iterations 2
DICPCG:  Solving for p, Initial residual = 0.0115899, Final residual = 0.00054028, No Iterations 64
time step continuity errors : sum local = 5.33206e-08, global = -1.71764e-20, cumulative = -8.48395e-21
DICPCG:  Solving for p, Initial residual = 0.00306335, Final residual = 9.79856e-07, No Iterations 176
time step continuity errors : sum local = 9.59722e-11, global = 1.91518e-20, cumulative = 1.06678e-20
ExecutionTime = 3.33 s  ClockTime = 4 s

Time = 0.0198

Courant Number mean: 0.0270866 max: 0.641269
smoothSolver:  Solving for Ux, Initial residual = 0.00741309, Final residual = 5.548e-06, No Iterations 2
smoothSolver:  Solving for Uy, Initial residual = 0.0081184, Final residual = 5.75908e-06, No Iterations 2
DICPCG:  Solving for p, Initial residual = 0.0106672, Final residual = 0.000520835, No Iterations 64
time step continuity errors : sum local = 5.17249e-08, global = -1.84169e-20, cumulative = -7.74911e-21
DICPCG:  Solving for p, Initial residual = 0.00295353, Final residual = 9.0874e-07, No Iterations 176
time step continuity errors : sum local = 8.95479e-11, global = -1.93802e-20, cumulative = -2.71293e-20
ExecutionTime = 3.4 s  ClockTime = 4 s

Time = 0.0204

Courant Number mean: 0.027479 max: 0.64334
smoothSolver:  Solving for Ux, Initial residual = 0.00717314, Final residual = 5.35684e-06, No Iterations 2
smoothSolver:  Solving for Uy, Initial residual = 0.00786705, Final residual = 5.56899e-06, No Iterations 2
DICPCG:  Solving for p, Initial residual = 0.0104361, Final residual = 0.00049756, No Iterations 64
time step continuity errors : sum local = 4.97034e-08, global = 2.98745e-21, cumulative = -2.41419e-20
DICPCG:  Solving for p, Initial residual = 0.00288135, Final residual = 8.80053e-07, No Iterations 176
time step continuity errors : sum local = 8.72071e-11, global = -2.43456e-20, cumulative = -4.84875e-20
ExecutionTime = 3.48 s  ClockTime = 4 s

Time = 0.021

Courant Number mean: 0.0278645 max: 0.645312
smoothSolver:  Solving for Ux, Initial residual = 0.00694882, Final residual = 5.17511e-06, No Iterations 2
smoothSolver:  Solving for Uy, Initial residual = 0.00763166, Final residual = 5.39154e-06, No Iterations 2
DICPCG:  Solving for p, Initial residual = 0.0106613, Final residual = 0.00052171, No Iterations 56
time step continuity errors : sum local = 5.18593e-08, global = -2.72032e-20, cumulative = -7.56907e-20
DICPCG:  Solving for p, Initial residual = 0.00282855, Final residual = 9.28043e-07, No Iterations 176
time step continuity errors : sum local = 9.24807e-11, global = 3.79349e-20, cumulative = -3.77558e-20
ExecutionTime = 3.56 s  ClockTime = 4 s

Time = 0.0216

Courant Number mean: 0.0282438 max: 0.647192
smoothSolver:  Solving for Ux, Initial residual = 0.00673647, Final residual = 5.00129e-06, No Iterations 2
smoothSolver:  Solving for Uy, Initial residual = 0.0074125, Final residual = 5.22661e-06, No Iterations 2
DICPCG:  Solving for p, Initial residual = 0.0108104, Final residual = 0.000514667, No Iterations 55
time step continuity errors : sum local = 5.15465e-08, global = -4.12873e-20, cumulative = -7.90432e-20
DICPCG:  Solving for p, Initial residual = 0.00287465, Final residual = 9.53051e-07, No Iterations 176
time step continuity errors : sum local = 9.54844e-11, global = -4.06172e-20, cumulative = -1.1966e-19
ExecutionTime = 3.63 s  ClockTime = 4 s

Time = 0.0222

Courant Number mean: 0.028616 max: 0.648986
smoothSolver:  Solving for Ux, Initial residual = 0.00653809, Final residual = 4.8374e-06, No Iterations 2
smoothSolver:  Solving for Uy, Initial residual = 0.00720646, Final residual = 5.07048e-06, No Iterations 2
DICPCG:  Solving for p, Initial residual = 0.00996708, Final residual = 0.000490472, No Iterations 55
time step continuity errors : sum local = 4.93632e-08, global = 2.92683e-20, cumulative = -9.03922e-20
DICPCG:  Solving for p, Initial residual = 0.00279098, Final residual = 8.96714e-07, No Iterations 176
time step continuity errors : sum local = 9.02895e-11, global = 2.18331e-20, cumulative = -6.8559e-20
ExecutionTime = 3.71 s  ClockTime = 4 s

Time = 0.0228

Courant Number mean: 0.0289815 max: 0.650701
smoothSolver:  Solving for Ux, Initial residual = 0.00635145, Final residual = 4.68225e-06, No Iterations 2
smoothSolver:  Solving for Uy, Initial residual = 0.00701132, Final residual = 4.92291e-06, No Iterations 2
DICPCG:  Solving for p, Initial residual = 0.0098207, Final residual = 0.000469482, No Iterations 55
time step continuity errors : sum local = 4.74854e-08, global = -7.5954e-21, cumulative = -7.61544e-20
DICPCG:  Solving for p, Initial residual = 0.00274172, Final residual = 8.75508e-07, No Iterations 176
time step continuity errors : sum local = 8.85679e-11, global = 2.60884e-20, cumulative = -5.0066e-20
ExecutionTime = 3.79 s  ClockTime = 4 s

Time = 0.0234

Courant Number mean: 0.0293404 max: 0.652344
smoothSolver:  Solving for Ux, Initial residual = 0.00617492, Final residual = 4.54572e-06, No Iterations 2
smoothSolver:  Solving for Uy, Initial residual = 0.0068271, Final residual = 4.78419e-06, No Iterations 2
DICPCG:  Solving for p, Initial residual = 0.0096849, Final residual = 0.000478583, No Iterations 54
time step continuity errors : sum local = 4.86363e-08, global = -4.88019e-20, cumulative = -9.88679e-20
DICPCG:  Solving for p, Initial residual = 0.00271386, Final residual = 8.66146e-07, No Iterations 176
time step continuity errors : sum local = 8.80066e-11, global = -2.07674e-20, cumulative = -1.19635e-19
ExecutionTime = 3.86 s  ClockTime = 4 s

Time = 0.024

Courant Number mean: 0.0296928 max: 0.653918
smoothSolver:  Solving for Ux, Initial residual = 0.00600759, Final residual = 4.42175e-06, No Iterations 2
smoothSolver:  Solving for Uy, Initial residual = 0.00665342, Final residual = 4.653e-06, No Iterations 2
DICPCG:  Solving for p, Initial residual = 0.00956965, Final residual = 0.000461153, No Iterations 54
time step continuity errors : sum local = 4.70808e-08, global = 1.128e-21, cumulative = -1.18507e-19
DICPCG:  Solving for p, Initial residual = 0.00268698, Final residual = 8.45312e-07, No Iterations 176
time step continuity errors : sum local = 8.62873e-11, global = -7.16542e-21, cumulative = -1.25673e-19
ExecutionTime = 3.94 s  ClockTime = 4 s

Time = 0.0246

Courant Number mean: 0.030039 max: 0.655429
smoothSolver:  Solving for Ux, Initial residual = 0.00584928, Final residual = 4.30581e-06, No Iterations 2
smoothSolver:  Solving for Uy, Initial residual = 0.00648965, Final residual = 4.52845e-06, No Iterations 2
DICPCG:  Solving for p, Initial residual = 0.00952589, Final residual = 0.000475838, No Iterations 53
time step continuity errors : sum local = 4.8798e-08, global = 9.2168e-21, cumulative = -1.16456e-19
DICPCG:  Solving for p, Initial residual = 0.00267867, Final residual = 8.35071e-07, No Iterations 176
time step continuity errors : sum local = 8.56189e-11, global = 3.94908e-21, cumulative = -1.12507e-19
ExecutionTime = 4.01 s  ClockTime = 4 s

Time = 0.0252

Courant Number mean: 0.030379 max: 0.656881
smoothSolver:  Solving for Ux, Initial residual = 0.00569901, Final residual = 4.19623e-06, No Iterations 2
smoothSolver:  Solving for Uy, Initial residual = 0.0063344, Final residual = 4.41073e-06, No Iterations 2
DICPCG:  Solving for p, Initial residual = 0.0102118, Final residual = 0.00049609, No Iterations 52
time step continuity errors : sum local = 5.10685e-08, global = -2.78986e-20, cumulative = -1.40406e-19
DICPCG:  Solving for p, Initial residual = 0.00273463, Final residual = 8.33771e-07, No Iterations 176
time step continuity errors : sum local = 8.57646e-11, global = 1.80024e-21, cumulative = -1.38605e-19
ExecutionTime = 4.09 s  ClockTime = 4 s

Time = 0.0258

Courant Number mean: 0.0307135 max: 0.658277
smoothSolver:  Solving for Ux, Initial residual = 0.00555574, Final residual = 4.09298e-06, No Iterations 2
smoothSolver:  Solving for Uy, Initial residual = 0.00618738, Final residual = 4.29973e-06, No Iterations 2
DICPCG:  Solving for p, Initial residual = 0.0101849, Final residual = 0.000476599, No Iterations 52
time step continuity errors : sum local = 4.92327e-08, global = 3.76798e-20, cumulative = -1.00925e-19
DICPCG:  Solving for p, Initial residual = 0.00261273, Final residual = 7.88598e-07, No Iterations 176
time step continuity errors : sum local = 8.14053e-11, global = 8.44031e-21, cumulative = -9.24852e-20
ExecutionTime = 4.16 s  ClockTime = 4 s

Time = 0.0264

Courant Number mean: 0.0310424 max: 0.659621
smoothSolver:  Solving for Ux, Initial residual = 0.00541977, Final residual = 3.9949e-06, No Iterations 2
smoothSolver:  Solving for Uy, Initial residual = 0.0060464, Final residual = 4.19356e-06, No Iterations 2
DICPCG:  Solving for p, Initial residual = 0.00911557, Final residual = 0.000425858, No Iterations 53
time step continuity errors : sum local = 4.41578e-08, global = -1.21188e-20, cumulative = -1.04604e-19
DICPCG:  Solving for p, Initial residual = 0.00254401, Final residual = 7.77269e-07, No Iterations 176
time step continuity errors : sum local = 8.05476e-11, global = 8.81139e-21, cumulative = -9.57925e-20
ExecutionTime = 4.24 s  ClockTime = 4 s

Time = 0.027

Courant Number mean: 0.0313654 max: 0.660917
smoothSolver:  Solving for Ux, Initial residual = 0.00528964, Final residual = 3.90206e-06, No Iterations 2
smoothSolver:  Solving for Uy, Initial residual = 0.00591398, Final residual = 4.09351e-06, No Iterations 2
DICPCG:  Solving for p, Initial residual = 0.00944545, Final residual = 0.000444658, No Iterations 52
time step continuity errors : sum local = 4.62766e-08, global = 4.92575e-20, cumulative = -4.65351e-20
DICPCG:  Solving for p, Initial residual = 0.00252988, Final residual = 9.77265e-07, No Iterations 175
time step continuity errors : sum local = 1.01652e-10, global = 1.52776e-20, cumulative = -3.12575e-20
ExecutionTime = 4.32 s  ClockTime = 5 s

Time = 0.0276

Courant Number mean: 0.0316832 max: 0.662166
smoothSolver:  Solving for Ux, Initial residual = 0.00516504, Final residual = 3.81278e-06, No Iterations 2
smoothSolver:  Solving for Uy, Initial residual = 0.00578675, Final residual = 3.99777e-06, No Iterations 2
DICPCG:  Solving for p, Initial residual = 0.00945322, Final residual = 0.000469224, No Iterations 51
time step continuity errors : sum local = 4.90082e-08, global = 2.5828e-20, cumulative = -5.42945e-21
DICPCG:  Solving for p, Initial residual = 0.00258891, Final residual = 9.96007e-07, No Iterations 175
time step continuity errors : sum local = 1.0396e-10, global = -2.17725e-20, cumulative = -2.72019e-20
ExecutionTime = 4.39 s  ClockTime = 5 s

Time = 0.0282

Courant Number mean: 0.0319954 max: 0.663372
smoothSolver:  Solving for Ux, Initial residual = 0.00504703, Final residual = 3.72663e-06, No Iterations 2
smoothSolver:  Solving for Uy, Initial residual = 0.0056684, Final residual = 3.90795e-06, No Iterations 2
DICPCG:  Solving for p, Initial residual = 0.00877219, Final residual = 0.0004213, No Iterations 52
time step continuity errors : sum local = 4.41614e-08, global = -3.11376e-20, cumulative = -5.83396e-20
DICPCG:  Solving for p, Initial residual = 0.00248285, Final residual = 9.57901e-07, No Iterations 175
time step continuity errors : sum local = 1.00341e-10, global = 4.50644e-20, cumulative = -1.32752e-20
ExecutionTime = 4.47 s  ClockTime = 5 s

Time = 0.0288

Courant Number mean: 0.0323023 max: 0.664538
smoothSolver:  Solving for Ux, Initial residual = 0.00493548, Final residual = 3.64395e-06, No Iterations 2
smoothSolver:  Solving for Uy, Initial residual = 0.00555407, Final residual = 3.82212e-06, No Iterations 2
DICPCG:  Solving for p, Initial residual = 0.00869585, Final residual = 0.000410815, No Iterations 52
time step continuity errors : sum local = 4.32065e-08, global = -1.28383e-20, cumulative = -2.61135e-20
DICPCG:  Solving for p, Initial residual = 0.00245602, Final residual = 9.40464e-07, No Iterations 175
time step continuity errors : sum local = 9.88344e-11, global = -1.6184e-20, cumulative = -4.22975e-20
ExecutionTime = 4.54 s  ClockTime = 5 s

Time = 0.0294

Courant Number mean: 0.0326041 max: 0.665665
smoothSolver:  Solving for Ux, Initial residual = 0.00482912, Final residual = 3.56419e-06, No Iterations 2
smoothSolver:  Solving for Uy, Initial residual = 0.00544485, Final residual = 3.7402e-06, No Iterations 2
DICPCG:  Solving for p, Initial residual = 0.00905844, Final residual = 0.000427506, No Iterations 51
time step continuity errors : sum local = 4.50969e-08, global = 7.93264e-21, cumulative = -3.43648e-20
DICPCG:  Solving for p, Initial residual = 0.00243101, Final residual = 9.11132e-07, No Iterations 175
time step continuity errors : sum local = 9.60344e-11, global = -1.60687e-20, cumulative = -5.04335e-20
ExecutionTime = 4.62 s  ClockTime = 5 s

Time = 0.03

Courant Number mean: 0.0329012 max: 0.666756
smoothSolver:  Solving for Ux, Initial residual = 0.00472752, Final residual = 3.48743e-06, No Iterations 2
smoothSolver:  Solving for Uy, Initial residual = 0.00534073, Final residual = 3.66242e-06, No Iterations 2
DICPCG:  Solving for p, Initial residual = 0.0092388, Final residual = 0.000451401, No Iterations 50
time step continuity errors : sum local = 4.77447e-08, global = -3.08446e-20, cumulative = -8.12781e-20
DICPCG:  Solving for p, Initial residual = 0.0025006, Final residual = 9.3065e-07, No Iterations 175
time step continuity errors : sum local = 9.83416e-11, global = 4.17581e-20, cumulative = -3.952e-20
ExecutionTime = 4.69 s  ClockTime = 5 s

Time = 0.0306

Courant Number mean: 0.0331948 max: 0.667812
smoothSolver:  Solving for Ux, Initial residual = 0.00463006, Final residual = 3.4131e-06, No Iterations 2
smoothSolver:  Solving for Uy, Initial residual = 0.00524297, Final residual = 3.58888e-06, No Iterations 2
DICPCG:  Solving for p, Initial residual = 0.00852247, Final residual = 0.00040377, No Iterations 51
time step continuity errors : sum local = 4.28224e-08, global = -1.33975e-21, cumulative = -4.08597e-20
DICPCG:  Solving for p, Initial residual = 0.00240216, Final residual = 8.99548e-07, No Iterations 175
time step continuity errors : sum local = 9.52866e-11, global = -4.56341e-21, cumulative = -4.54232e-20
ExecutionTime = 4.77 s  ClockTime = 5 s

Time = 0.0312

Courant Number mean: 0.0334856 max: 0.668835
smoothSolver:  Solving for Ux, Initial residual = 0.00453645, Final residual = 3.34106e-06, No Iterations 2
smoothSolver:  Solving for Uy, Initial residual = 0.00514827, Final residual = 3.51772e-06, No Iterations 2
DICPCG:  Solving for p, Initial residual = 0.00847035, Final residual = 0.000394318, No Iterations 51
time step continuity errors : sum local = 4.19244e-08, global = -3.83549e-20, cumulative = -8.37781e-20
DICPCG:  Solving for p, Initial residual = 0.00238733, Final residual = 8.68947e-07, No Iterations 175
time step continuity errors : sum local = 9.22748e-11, global = 1.94543e-20, cumulative = -6.43238e-20
ExecutionTime = 4.85 s  ClockTime = 5 s

Time = 0.0318

Courant Number mean: 0.0337731 max: 0.669828
smoothSolver:  Solving for Ux, Initial residual = 0.00444576, Final residual = 3.27089e-06, No Iterations 2
smoothSolver:  Solving for Uy, Initial residual = 0.005058, Final residual = 3.44943e-06, No Iterations 2
DICPCG:  Solving for p, Initial residual = 0.00838037, Final residual = 0.00041595, No Iterations 50
time step continuity errors : sum local = 4.43357e-08, global = 1.81968e-20, cumulative = -4.6127e-20
DICPCG:  Solving for p, Initial residual = 0.0023874, Final residual = 8.42893e-07, No Iterations 175
time step continuity errors : sum local = 8.97506e-11, global = -9.47347e-21, cumulative = -5.56005e-20
ExecutionTime = 4.92 s  ClockTime = 5 s

Time = 0.0324

Courant Number mean: 0.0340571 max: 0.670791
smoothSolver:  Solving for Ux, Initial residual = 0.00435834, Final residual = 3.20265e-06, No Iterations 2
smoothSolver:  Solving for Uy, Initial residual = 0.00497115, Final residual = 3.38421e-06, No Iterations 2
DICPCG:  Solving for p, Initial residual = 0.00826724, Final residual = 0.000406882, No Iterations 50
time step continuity errors : sum local = 4.34845e-08, global = 6.15655e-22, cumulative = -5.49848e-20
DICPCG:  Solving for p, Initial residual = 0.00237345, Final residual = 9.78611e-07, No Iterations 174
time step continuity errors : sum local = 1.04534e-10, global = -4.72847e-21, cumulative = -5.97133e-20
ExecutionTime = 4.99 s  ClockTime = 5 s

Time = 0.033

Courant Number mean: 0.0343377 max: 0.671727
smoothSolver:  Solving for Ux, Initial residual = 0.00427384, Final residual = 3.13635e-06, No Iterations 2
smoothSolver:  Solving for Uy, Initial residual = 0.00488772, Final residual = 3.32141e-06, No Iterations 2
DICPCG:  Solving for p, Initial residual = 0.00816504, Final residual = 0.000398426, No Iterations 50
time step continuity errors : sum local = 4.26966e-08, global = 2.17411e-20, cumulative = -3.79722e-20
DICPCG:  Solving for p, Initial residual = 0.00235127, Final residual = 9.5363e-07, No Iterations 174
time step continuity errors : sum local = 1.02125e-10, global = 1.18191e-20, cumulative = -2.61531e-20
ExecutionTime = 5.07 s  ClockTime = 5 s

Time = 0.0336

Courant Number mean: 0.034615 max: 0.672705
smoothSolver:  Solving for Ux, Initial residual = 0.00419216, Final residual = 3.0721e-06, No Iterations 2
smoothSolver:  Solving for Uy, Initial residual = 0.00480795, Final residual = 3.26124e-06, No Iterations 2
DICPCG:  Solving for p, Initial residual = 0.00808149, Final residual = 0.000390539, No Iterations 50
time step continuity errors : sum local = 4.19567e-08, global = 3.4313e-20, cumulative = 8.15989e-21
DICPCG:  Solving for p, Initial residual = 0.00233293, Final residual = 9.85891e-07, No Iterations 173
time step continuity errors : sum local = 1.0586e-10, global = -1.37587e-20, cumulative = -5.59879e-21
ExecutionTime = 5.14 s  ClockTime = 5 s

Time = 0.0342

Courant Number mean: 0.0348892 max: 0.673796
smoothSolver:  Solving for Ux, Initial residual = 0.00411363, Final residual = 3.01004e-06, No Iterations 2
smoothSolver:  Solving for Uy, Initial residual = 0.00473137, Final residual = 3.20361e-06, No Iterations 2
DICPCG:  Solving for p, Initial residual = 0.00822927, Final residual = 0.000383988, No Iterations 50
time step continuity errors : sum local = 4.13558e-08, global = -6.45504e-21, cumulative = -1.20538e-20
DICPCG:  Solving for p, Initial residual = 0.00231, Final residual = 9.51964e-07, No Iterations 173
time step continuity errors : sum local = 1.02457e-10, global = -2.92514e-20, cumulative = -4.13052e-20
ExecutionTime = 5.22 s  ClockTime = 5 s

Time = 0.0348

Courant Number mean: 0.0351601 max: 0.674861
smoothSolver:  Solving for Ux, Initial residual = 0.00403842, Final residual = 2.95e-06, No Iterations 2
smoothSolver:  Solving for Uy, Initial residual = 0.00465685, Final residual = 3.14856e-06, No Iterations 2
DICPCG:  Solving for p, Initial residual = 0.00812657, Final residual = 0.000376236, No Iterations 50
time step continuity errors : sum local = 4.06205e-08, global = 1.61609e-20, cumulative = -2.51443e-20
DICPCG:  Solving for p, Initial residual = 0.00228938, Final residual = 8.43892e-07, No Iterations 175
time step continuity errors : sum local = 9.10236e-11, global = 2.82989e-20, cumulative = 3.15452e-21
ExecutionTime = 5.29 s  ClockTime = 6 s

Time = 0.0354

Courant Number mean: 0.0354273 max: 0.675898
smoothSolver:  Solving for Ux, Initial residual = 0.00396623, Final residual = 2.89199e-06, No Iterations 2
smoothSolver:  Solving for Uy, Initial residual = 0.00458663, Final residual = 3.09595e-06, No Iterations 2
DICPCG:  Solving for p, Initial residual = 0.00807736, Final residual = 0.000400012, No Iterations 49
time step continuity errors : sum local = 4.32838e-08, global = 2.16326e-20, cumulative = 2.47871e-20
DICPCG:  Solving for p, Initial residual = 0.00228398, Final residual = 9.82939e-07, No Iterations 172
time step continuity errors : sum local = 1.06348e-10, global = -3.80235e-20, cumulative = -1.32364e-20
ExecutionTime = 5.37 s  ClockTime = 6 s

Time = 0.036

Courant Number mean: 0.0356914 max: 0.676909
smoothSolver:  Solving for Ux, Initial residual = 0.00389665, Final residual = 2.83618e-06, No Iterations 2
smoothSolver:  Solving for Uy, Initial residual = 0.00451807, Final residual = 3.0447e-06, No Iterations 2
DICPCG:  Solving for p, Initial residual = 0.00806182, Final residual = 0.000390903, No Iterations 49
time step continuity errors : sum local = 4.23973e-08, global = -3.03893e-20, cumulative = -4.36257e-20
DICPCG:  Solving for p, Initial residual = 0.00229049, Final residual = 9.89597e-07, No Iterations 173
time step continuity errors : sum local = 1.07267e-10, global = 5.4201e-20, cumulative = 1.05753e-20
ExecutionTime = 5.44 s  ClockTime = 6 s

Time = 0.0366

Courant Number mean: 0.035952 max: 0.677895
smoothSolver:  Solving for Ux, Initial residual = 0.00382975, Final residual = 2.78205e-06, No Iterations 2
smoothSolver:  Solving for Uy, Initial residual = 0.00445333, Final residual = 2.99588e-06, No Iterations 2
DICPCG:  Solving for p, Initial residual = 0.00792638, Final residual = 0.000379753, No Iterations 49
time step continuity errors : sum local = 4.1281e-08, global = -2.20129e-20, cumulative = -1.14376e-20
DICPCG:  Solving for p, Initial residual = 0.00225787, Final residual = 9.83538e-07, No Iterations 172
time step continuity errors : sum local = 1.06912e-10, global = -1.09322e-20, cumulative = -2.23698e-20
ExecutionTime = 5.51 s  ClockTime = 6 s

Time = 0.0372

Courant Number mean: 0.0362092 max: 0.678855
smoothSolver:  Solving for Ux, Initial residual = 0.00376492, Final residual = 2.72946e-06, No Iterations 2
smoothSolver:  Solving for Uy, Initial residual = 0.00439053, Final residual = 2.94849e-06, No Iterations 2
DICPCG:  Solving for p, Initial residual = 0.00797198, Final residual = 0.000378129, No Iterations 49
time step continuity errors : sum local = 4.11974e-08, global = -2.49945e-20, cumulative = -4.73643e-20
DICPCG:  Solving for p, Initial residual = 0.00223735, Final residual = 9.42061e-07, No Iterations 172
time step continuity errors : sum local = 1.02643e-10, global = 4.77062e-21, cumulative = -4.25937e-20
ExecutionTime = 5.58 s  ClockTime = 6 s

Time = 0.0378

Courant Number mean: 0.0364633 max: 0.67979
smoothSolver:  Solving for Ux, Initial residual = 0.00370256, Final residual = 2.67828e-06, No Iterations 2
smoothSolver:  Solving for Uy, Initial residual = 0.00432951, Final residual = 2.90284e-06, No Iterations 2
DICPCG:  Solving for p, Initial residual = 0.00789081, Final residual = 0.000372229, No Iterations 49
time step continuity errors : sum local = 4.06534e-08, global = -7.05102e-21, cumulative = -4.96447e-20
DICPCG:  Solving for p, Initial residual = 0.0022115, Final residual = 9.95458e-07, No Iterations 171
time step continuity errors : sum local = 1.08815e-10, global = -2.7856e-20, cumulative = -7.75008e-20
ExecutionTime = 5.66 s  ClockTime = 6 s

Time = 0.0384

Courant Number mean: 0.0367143 max: 0.6807
smoothSolver:  Solving for Ux, Initial residual = 0.003642, Final residual = 2.62866e-06, No Iterations 2
smoothSolver:  Solving for Uy, Initial residual = 0.00427108, Final residual = 2.85895e-06, No Iterations 2
DICPCG:  Solving for p, Initial residual = 0.0083395, Final residual = 0.000412881, No Iterations 47
time step continuity errors : sum local = 4.5195e-08, global = -2.78968e-20, cumulative = -1.05398e-19
DICPCG:  Solving for p, Initial residual = 0.00224217, Final residual = 9.5018e-07, No Iterations 151
time step continuity errors : sum local = 1.04032e-10, global = -2.60659e-20, cumulative = -1.31463e-19
ExecutionTime = 5.72 s  ClockTime = 6 s

Time = 0.039

Courant Number mean: 0.0369622 max: 0.681587
smoothSolver:  Solving for Ux, Initial residual = 0.00358338, Final residual = 2.58026e-06, No Iterations 2
smoothSolver:  Solving for Uy, Initial residual = 0.00421541, Final residual = 2.81694e-06, No Iterations 2
DICPCG:  Solving for p, Initial residual = 0.00763325, Final residual = 0.000357937, No Iterations 49
time step continuity errors : sum local = 3.92808e-08, global = -4.07508e-20, cumulative = -1.72214e-19
DICPCG:  Solving for p, Initial residual = 0.00216265, Final residual = 9.52797e-07, No Iterations 171
time step continuity errors : sum local = 1.04653e-10, global = -2.91073e-20, cumulative = -2.01322e-19
ExecutionTime = 5.8 s  ClockTime = 6 s

Time = 0.0396

Courant Number mean: 0.0372069 max: 0.682452
smoothSolver:  Solving for Ux, Initial residual = 0.0035274, Final residual = 2.53339e-06, No Iterations 2
smoothSolver:  Solving for Uy, Initial residual = 0.00416147, Final residual = 2.77657e-06, No Iterations 2
DICPCG:  Solving for p, Initial residual = 0.00767679, Final residual = 0.000379814, No Iterations 48
time step continuity errors : sum local = 4.17616e-08, global = 1.63307e-20, cumulative = -1.84991e-19
DICPCG:  Solving for p, Initial residual = 0.00217853, Final residual = 8.79692e-07, No Iterations 171
time step continuity errors : sum local = 9.68069e-11, global = -2.08046e-20, cumulative = -2.05795e-19
ExecutionTime = 5.88 s  ClockTime = 6 s

Time = 0.0402

Courant Number mean: 0.0374484 max: 0.683294
smoothSolver:  Solving for Ux, Initial residual = 0.00347334, Final residual = 2.48778e-06, No Iterations 2
smoothSolver:  Solving for Uy, Initial residual = 0.00410946, Final residual = 2.73755e-06, No Iterations 2
DICPCG:  Solving for p, Initial residual = 0.00747383, Final residual = 0.000348294, No Iterations 49
time step continuity errors : sum local = 3.83736e-08, global = 2.96938e-20, cumulative = -1.76102e-19
DICPCG:  Solving for p, Initial residual = 0.00214671, Final residual = 9.14937e-07, No Iterations 171
time step continuity errors : sum local = 1.00879e-10, global = -6.69204e-20, cumulative = -2.43022e-19
ExecutionTime = 5.95 s  ClockTime = 6 s

Time = 0.0408

Courant Number mean: 0.0376868 max: 0.684114
smoothSolver:  Solving for Ux, Initial residual = 0.00342085, Final residual = 2.44656e-06, No Iterations 2
smoothSolver:  Solving for Uy, Initial residual = 0.00405941, Final residual = 2.69994e-06, No Iterations 2
DICPCG:  Solving for p, Initial residual = 0.00747087, Final residual = 0.000370858, No Iterations 48
time step continuity errors : sum local = 4.09305e-08, global = -6.09483e-20, cumulative = -3.0397e-19
DICPCG:  Solving for p, Initial residual = 0.00214765, Final residual = 9.40293e-07, No Iterations 170
time step continuity errors : sum local = 1.03914e-10, global = 1.4027e-20, cumulative = -2.89943e-19
ExecutionTime = 6.02 s  ClockTime = 6 s

Time = 0.0414

Courant Number mean: 0.0379224 max: 0.684912
smoothSolver:  Solving for Ux, Initial residual = 0.00336949, Final residual = 2.40825e-06, No Iterations 2
smoothSolver:  Solving for Uy, Initial residual = 0.00401092, Final residual = 2.66352e-06, No Iterations 2
DICPCG:  Solving for p, Initial residual = 0.00746275, Final residual = 0.000361809, No Iterations 48
time step continuity errors : sum local = 4.0005e-08, global = -3.42497e-20, cumulative = -3.24193e-19
DICPCG:  Solving for p, Initial residual = 0.00214241, Final residual = 8.8765e-07, No Iterations 170
time step continuity errors : sum local = 9.82801e-11, global = -5.35818e-20, cumulative = -3.77775e-19
ExecutionTime = 6.1 s  ClockTime = 6 s

Time = 0.042

Courant Number mean: 0.0381558 max: 0.685691
smoothSolver:  Solving for Ux, Initial residual = 0.00331923, Final residual = 2.37148e-06, No Iterations 2
smoothSolver:  Solving for Uy, Initial residual = 0.0039639, Final residual = 2.62867e-06, No Iterations 2
DICPCG:  Solving for p, Initial residual = 0.00751951, Final residual = 0.000359017, No Iterations 48
time step continuity errors : sum local = 3.97784e-08, global = 5.81523e-20, cumulative = -3.19622e-19
DICPCG:  Solving for p, Initial residual = 0.00213043, Final residual = 9.07363e-07, No Iterations 169
time step continuity errors : sum local = 1.00726e-10, global = 1.18612e-21, cumulative = -3.18436e-19
ExecutionTime = 6.17 s  ClockTime = 6 s

Time = 0.0426

Courant Number mean: 0.0383874 max: 0.686449
smoothSolver:  Solving for Ux, Initial residual = 0.00327046, Final residual = 2.33565e-06, No Iterations 2
smoothSolver:  Solving for Uy, Initial residual = 0.0039188, Final residual = 2.59503e-06, No Iterations 2
DICPCG:  Solving for p, Initial residual = 0.00764576, Final residual = 0.000377217, No Iterations 47
time step continuity errors : sum local = 4.18816e-08, global = -5.72187e-20, cumulative = -3.75655e-19
DICPCG:  Solving for p, Initial residual = 0.00213767, Final residual = 9.93357e-07, No Iterations 168
time step continuity errors : sum local = 1.10613e-10, global = 2.44858e-21, cumulative = -3.73206e-19
ExecutionTime = 6.24 s  ClockTime = 6 s

Time = 0.0432

Courant Number mean: 0.0386169 max: 0.687189
smoothSolver:  Solving for Ux, Initial residual = 0.00322276, Final residual = 2.30078e-06, No Iterations 2
smoothSolver:  Solving for Uy, Initial residual = 0.00387364, Final residual = 2.56117e-06, No Iterations 2
DICPCG:  Solving for p, Initial residual = 0.00803007, Final residual = 0.000397906, No Iterations 44
time step continuity errors : sum local = 4.42757e-08, global = -3.16181e-20, cumulative = -4.04825e-19
DICPCG:  Solving for p, Initial residual = 0.00212946, Final residual = 9.62061e-07, No Iterations 169
time step continuity errors : sum local = 1.07661e-10, global = -3.47629e-20, cumulative = -4.39588e-19
ExecutionTime = 6.31 s  ClockTime = 7 s

Time = 0.0438

Courant Number mean: 0.0388437 max: 0.687907
smoothSolver:  Solving for Ux, Initial residual = 0.00317615, Final residual = 2.2669e-06, No Iterations 2
smoothSolver:  Solving for Uy, Initial residual = 0.00383026, Final residual = 2.52836e-06, No Iterations 2
DICPCG:  Solving for p, Initial residual = 0.00737738, Final residual = 0.000365482, No Iterations 46
time step continuity errors : sum local = 4.07577e-08, global = 2.69131e-20, cumulative = -4.12674e-19
DICPCG:  Solving for p, Initial residual = 0.00207703, Final residual = 8.90326e-07, No Iterations 171
time step continuity errors : sum local = 9.94389e-11, global = -5.2508e-20, cumulative = -4.65182e-19
ExecutionTime = 6.38 s  ClockTime = 7 s

Time = 0.0444

Courant Number mean: 0.0390693 max: 0.688633
smoothSolver:  Solving for Ux, Initial residual = 0.00313151, Final residual = 2.2344e-06, No Iterations 2
smoothSolver:  Solving for Uy, Initial residual = 0.00378987, Final residual = 2.49787e-06, No Iterations 2
DICPCG:  Solving for p, Initial residual = 0.00720613, Final residual = 0.000354818, No Iterations 47
time step continuity errors : sum local = 3.96543e-08, global = -1.82226e-20, cumulative = -4.83405e-19
DICPCG:  Solving for p, Initial residual = 0.00207837, Final residual = 9.96141e-07, No Iterations 169
time step continuity errors : sum local = 1.11594e-10, global = -5.69781e-21, cumulative = -4.89103e-19
ExecutionTime = 6.46 s  ClockTime = 7 s

Time = 0.045

Courant Number mean: 0.0392934 max: 0.689343
smoothSolver:  Solving for Ux, Initial residual = 0.00308959, Final residual = 2.20257e-06, No Iterations 2
smoothSolver:  Solving for Uy, Initial residual = 0.00375062, Final residual = 2.46822e-06, No Iterations 2
DICPCG:  Solving for p, Initial residual = 0.00723652, Final residual = 0.000358873, No Iterations 46
time step continuity errors : sum local = 4.01864e-08, global = -2.53627e-20, cumulative = -5.14466e-19
DICPCG:  Solving for p, Initial residual = 0.00207561, Final residual = 9.55654e-07, No Iterations 170
time step continuity errors : sum local = 1.07212e-10, global = 3.90967e-20, cumulative = -4.75369e-19
ExecutionTime = 6.53 s  ClockTime = 7 s

Time = 0.0456

Courant Number mean: 0.0395153 max: 0.690038
smoothSolver:  Solving for Ux, Initial residual = 0.00304877, Final residual = 2.17128e-06, No Iterations 2
smoothSolver:  Solving for Uy, Initial residual = 0.00371204, Final residual = 2.43914e-06, No Iterations 2
DICPCG:  Solving for p, Initial residual = 0.00707929, Final residual = 0.0003536, No Iterations 46
time step continuity errors : sum local = 3.96668e-08, global = -7.80795e-21, cumulative = -4.83177e-19
DICPCG:  Solving for p, Initial residual = 0.00206495, Final residual = 9.52854e-07, No Iterations 170
time step continuity errors : sum local = 1.0712e-10, global = 1.72257e-20, cumulative = -4.65951e-19
ExecutionTime = 6.6 s  ClockTime = 7 s

Time = 0.0462

Courant Number mean: 0.0397352 max: 0.690718
smoothSolver:  Solving for Ux, Initial residual = 0.00300885, Final residual = 2.14083e-06, No Iterations 2
smoothSolver:  Solving for Uy, Initial residual = 0.00367443, Final residual = 2.41124e-06, No Iterations 2
DICPCG:  Solving for p, Initial residual = 0.0069928, Final residual = 0.000339717, No Iterations 47
time step continuity errors : sum local = 3.81812e-08, global = 3.58469e-20, cumulative = -4.30104e-19
DICPCG:  Solving for p, Initial residual = 0.00204136, Final residual = 9.82614e-07, No Iterations 169
time step continuity errors : sum local = 1.10692e-10, global = -9.83054e-21, cumulative = -4.39935e-19
ExecutionTime = 6.67 s  ClockTime = 7 s

Time = 0.0468

Courant Number mean: 0.039953 max: 0.69138
smoothSolver:  Solving for Ux, Initial residual = 0.00296992, Final residual = 2.11117e-06, No Iterations 2
smoothSolver:  Solving for Uy, Initial residual = 0.00363846, Final residual = 2.38432e-06, No Iterations 2
DICPCG:  Solving for p, Initial residual = 0.00707363, Final residual = 0.000345759, No Iterations 46
time step continuity errors : sum local = 3.89305e-08, global = -1.1437e-21, cumulative = -4.41079e-19
DICPCG:  Solving for p, Initial residual = 0.00204639, Final residual = 9.37972e-07, No Iterations 170
time step continuity errors : sum local = 1.05829e-10, global = -3.47852e-20, cumulative = -4.75864e-19
ExecutionTime = 6.75 s  ClockTime = 7 s

Time = 0.0474

Courant Number mean: 0.0401685 max: 0.692026
smoothSolver:  Solving for Ux, Initial residual = 0.00293147, Final residual = 2.08224e-06, No Iterations 2
smoothSolver:  Solving for Uy, Initial residual = 0.00360393, Final residual = 2.35839e-06, No Iterations 2
DICPCG:  Solving for p, Initial residual = 0.00701083, Final residual = 0.000344965, No Iterations 46
time step continuity errors : sum local = 3.8911e-08, global = 1.55417e-20, cumulative = -4.60322e-19
DICPCG:  Solving for p, Initial residual = 0.00203698, Final residual = 9.489e-07, No Iterations 170
time step continuity errors : sum local = 1.07288e-10, global = -4.69272e-20, cumulative = -5.07249e-19
ExecutionTime = 6.82 s  ClockTime = 7 s

Time = 0.048

Courant Number mean: 0.0403819 max: 0.692657
smoothSolver:  Solving for Ux, Initial residual = 0.00289372, Final residual = 2.05426e-06, No Iterations 2
smoothSolver:  Solving for Uy, Initial residual = 0.00357054, Final residual = 2.3335e-06, No Iterations 2
DICPCG:  Solving for p, Initial residual = 0.0070102, Final residual = 0.000339459, No Iterations 46
time step continuity errors : sum local = 3.83613e-08, global = 5.35532e-20, cumulative = -4.53696e-19
DICPCG:  Solving for p, Initial residual = 0.00202025, Final residual = 9.21337e-07, No Iterations 170
time step continuity errors : sum local = 1.04323e-10, global = -1.27719e-21, cumulative = -4.54973e-19
ExecutionTime = 6.89 s  ClockTime = 7 s

Time = 0.0486

Courant Number mean: 0.0405933 max: 0.693273
smoothSolver:  Solving for Ux, Initial residual = 0.00285663, Final residual = 2.0267e-06, No Iterations 2
smoothSolver:  Solving for Uy, Initial residual = 0.00353749, Final residual = 2.30878e-06, No Iterations 2
DICPCG:  Solving for p, Initial residual = 0.00714655, Final residual = 0.000348596, No Iterations 45
time step continuity errors : sum local = 3.94653e-08, global = -1.84255e-20, cumulative = -4.73399e-19
DICPCG:  Solving for p, Initial residual = 0.00200809, Final residual = 9.46927e-07, No Iterations 170
time step continuity errors : sum local = 1.0758e-10, global = 3.35395e-21, cumulative = -4.70045e-19
ExecutionTime = 6.96 s  ClockTime = 7 s

Time = 0.0492

Courant Number mean: 0.0408028 max: 0.693876
smoothSolver:  Solving for Ux, Initial residual = 0.00282009, Final residual = 1.99989e-06, No Iterations 2
smoothSolver:  Solving for Uy, Initial residual = 0.00350577, Final residual = 2.28522e-06, No Iterations 2
DICPCG:  Solving for p, Initial residual = 0.00728366, Final residual = 0.000356888, No Iterations 44
time step continuity errors : sum local = 4.0472e-08, global = 3.71215e-21, cumulative = -4.66333e-19
DICPCG:  Solving for p, Initial residual = 0.00201468, Final residual = 9.82217e-07, No Iterations 149
time step continuity errors : sum local = 1.11753e-10, global = -8.1823e-20, cumulative = -5.48156e-19
ExecutionTime = 7.03 s  ClockTime = 7 s

Time = 0.0498

Courant Number mean: 0.0410103 max: 0.694463
smoothSolver:  Solving for Ux, Initial residual = 0.00278464, Final residual = 1.97304e-06, No Iterations 2
smoothSolver:  Solving for Uy, Initial residual = 0.00347384, Final residual = 2.26111e-06, No Iterations 2
DICPCG:  Solving for p, Initial residual = 0.00681178, Final residual = 0.000338871, No Iterations 45
time step continuity errors : sum local = 3.84923e-08, global = 5.29165e-21, cumulative = -5.42864e-19
DICPCG:  Solving for p, Initial residual = 0.00198845, Final residual = 9.35692e-07, No Iterations 170
time step continuity errors : sum local = 1.06648e-10, global = 6.14772e-20, cumulative = -4.81387e-19
ExecutionTime = 7.1 s  ClockTime = 7 s

Time = 0.0504

Courant Number mean: 0.0412158 max: 0.695036
smoothSolver:  Solving for Ux, Initial residual = 0.00275173, Final residual = 1.94718e-06, No Iterations 2
smoothSolver:  Solving for Uy, Initial residual = 0.00344396, Final residual = 2.23906e-06, No Iterations 2
DICPCG:  Solving for p, Initial residual = 0.00674361, Final residual = 0.000337104, No Iterations 45
time step continuity errors : sum local = 3.83552e-08, global = -1.80925e-20, cumulative = -4.99479e-19
DICPCG:  Solving for p, Initial residual = 0.00198098, Final residual = 9.55464e-07, No Iterations 170
time step continuity errors : sum local = 1.09076e-10, global = 4.17447e-20, cumulative = -4.57735e-19
ExecutionTime = 7.17 s  ClockTime = 7 s

Time = 0.051

Courant Number mean: 0.0414191 max: 0.695595
smoothSolver:  Solving for Ux, Initial residual = 0.00271982, Final residual = 1.922e-06, No Iterations 2
smoothSolver:  Solving for Uy, Initial residual = 0.00341477, Final residual = 2.21749e-06, No Iterations 2
DICPCG:  Solving for p, Initial residual = 0.00672156, Final residual = 0.000335272, No Iterations 45
time step continuity errors : sum local = 3.82084e-08, global = 3.90842e-20, cumulative = -4.1865e-19
DICPCG:  Solving for p, Initial residual = 0.00197413, Final residual = 9.58687e-07, No Iterations 170
time step continuity errors : sum local = 1.09626e-10, global = 5.17156e-21, cumulative = -4.13479e-19
ExecutionTime = 7.24 s  ClockTime = 7 s

Time = 0.0516

Courant Number mean: 0.0416207 max: 0.69614
smoothSolver:  Solving for Ux, Initial residual = 0.00268852, Final residual = 1.89765e-06, No Iterations 2
smoothSolver:  Solving for Uy, Initial residual = 0.00338636, Final residual = 2.19642e-06, No Iterations 2
DICPCG:  Solving for p, Initial residual = 0.00673077, Final residual = 0.000334276, No Iterations 45
time step continuity errors : sum local = 3.81574e-08, global = -4.6266e-21, cumulative = -4.18106e-19
DICPCG:  Solving for p, Initial residual = 0.00196263, Final residual = 9.80397e-07, No Iterations 170
time step continuity errors : sum local = 1.12301e-10, global = -5.13197e-21, cumulative = -4.23237e-19
ExecutionTime = 7.31 s  ClockTime = 8 s

Time = 0.0522

Courant Number mean: 0.0418215 max: 0.696671
smoothSolver:  Solving for Ux, Initial residual = 0.00265774, Final residual = 1.87393e-06, No Iterations 2
smoothSolver:  Solving for Uy, Initial residual = 0.0033584, Final residual = 2.17605e-06, No Iterations 2
DICPCG:  Solving for p, Initial residual = 0.00670955, Final residual = 0.000331193, No Iterations 45
time step continuity errors : sum local = 3.78745e-08, global = -3.77211e-21, cumulative = -4.2701e-19
DICPCG:  Solving for p, Initial residual = 0.00195349, Final residual = 9.21439e-07, No Iterations 170
time step continuity errors : sum local = 1.05775e-10, global = 2.7838e-20, cumulative = -3.99172e-19
ExecutionTime = 7.39 s  ClockTime = 8 s

Time = 0.0528

Courant Number mean: 0.0420213 max: 0.697218
smoothSolver:  Solving for Ux, Initial residual = 0.00262745, Final residual = 1.85087e-06, No Iterations 2
smoothSolver:  Solving for Uy, Initial residual = 0.0033319, Final residual = 2.15667e-06, No Iterations 2
DICPCG:  Solving for p, Initial residual = 0.0066858, Final residual = 0.000329261, No Iterations 45
time step continuity errors : sum local = 3.77279e-08, global = -2.36443e-21, cumulative = -4.01536e-19
DICPCG:  Solving for p, Initial residual = 0.00194076, Final residual = 9.5913e-07, No Iterations 170
time step continuity errors : sum local = 1.10329e-10, global = 4.23691e-20, cumulative = -3.59167e-19
ExecutionTime = 7.46 s  ClockTime = 8 s

Time = 0.0534

Courant Number mean: 0.0422204 max: 0.697754
smoothSolver:  Solving for Ux, Initial residual = 0.00259749, Final residual = 1.8291e-06, No Iterations 2
smoothSolver:  Solving for Uy, Initial residual = 0.00330553, Final residual = 2.13735e-06, No Iterations 2
DICPCG:  Solving for p, Initial residual = 0.00671215, Final residual = 0.00032736, No Iterations 45
time step continuity errors : sum local = 3.7584e-08, global = -1.10353e-20, cumulative = -3.70202e-19
DICPCG:  Solving for p, Initial residual = 0.00194156, Final residual = 9.43829e-07, No Iterations 170
time step continuity errors : sum local = 1.08807e-10, global = -3.2856e-20, cumulative = -4.03058e-19
ExecutionTime = 7.53 s  ClockTime = 8 s

Time = 0.054

Courant Number mean: 0.0424173 max: 0.69828
smoothSolver:  Solving for Ux, Initial residual = 0.0025679, Final residual = 1.80865e-06, No Iterations 2
smoothSolver:  Solving for Uy, Initial residual = 0.00328018, Final residual = 2.11849e-06, No Iterations 2
DICPCG:  Solving for p, Initial residual = 0.00664403, Final residual = 0.000327924, No Iterations 45
time step continuity errors : sum local = 3.77181e-08, global = -6.2065e-20, cumulative = -4.65123e-19
DICPCG:  Solving for p, Initial residual = 0.00191903, Final residual = 9.6669e-07, No Iterations 170
time step continuity errors : sum local = 1.1166e-10, global = -1.39393e-20, cumulative = -4.79062e-19
ExecutionTime = 7.6 s  ClockTime = 8 s

Time = 0.0546

Courant Number mean: 0.0426124 max: 0.698794
smoothSolver:  Solving for Ux, Initial residual = 0.0025388, Final residual = 1.78872e-06, No Iterations 2
smoothSolver:  Solving for Uy, Initial residual = 0.00325547, Final residual = 2.10013e-06, No Iterations 2
DICPCG:  Solving for p, Initial residual = 0.00665472, Final residual = 0.000326628, No Iterations 45
time step continuity errors : sum local = 3.76351e-08, global = 2.10109e-20, cumulative = -4.58052e-19
DICPCG:  Solving for p, Initial residual = 0.00192051, Final residual = 9.29942e-07, No Iterations 170
time step continuity errors : sum local = 1.07586e-10, global = -4.16232e-20, cumulative = -4.99675e-19
ExecutionTime = 7.67 s  ClockTime = 8 s

Time = 0.0552

Courant Number mean: 0.0428057 max: 0.699296
smoothSolver:  Solving for Ux, Initial residual = 0.00251041, Final residual = 1.76908e-06, No Iterations 2
smoothSolver:  Solving for Uy, Initial residual = 0.00323114, Final residual = 2.08232e-06, No Iterations 2
DICPCG:  Solving for p, Initial residual = 0.00651617, Final residual = 0.000321758, No Iterations 45
time step continuity errors : sum local = 3.71355e-08, global = 5.28774e-20, cumulative = -4.46797e-19
DICPCG:  Solving for p, Initial residual = 0.00190062, Final residual = 9.34494e-07, No Iterations 170
time step continuity errors : sum local = 1.08318e-10, global = 6.18585e-21, cumulative = -4.40611e-19
ExecutionTime = 7.75 s  ClockTime = 8 s

Time = 0.0558

Courant Number mean: 0.0429973 max: 0.699786
smoothSolver:  Solving for Ux, Initial residual = 0.00248367, Final residual = 1.7498e-06, No Iterations 2
smoothSolver:  Solving for Uy, Initial residual = 0.0032078, Final residual = 2.06502e-06, No Iterations 2
DICPCG:  Solving for p, Initial residual = 0.00643626, Final residual = 0.000319682, No Iterations 45
time step continuity errors : sum local = 3.69555e-08, global = -2.85552e-20, cumulative = -4.69167e-19
DICPCG:  Solving for p, Initial residual = 0.00189547, Final residual = 9.49079e-07, No Iterations 170
time step continuity errors : sum local = 1.10184e-10, global = 8.25837e-21, cumulative = -4.60908e-19
ExecutionTime = 7.82 s  ClockTime = 8 s

Time = 0.0564

Courant Number mean: 0.043187 max: 0.700263
smoothSolver:  Solving for Ux, Initial residual = 0.00245801, Final residual = 1.73079e-06, No Iterations 2
smoothSolver:  Solving for Uy, Initial residual = 0.00318513, Final residual = 2.048e-06, No Iterations 2
DICPCG:  Solving for p, Initial residual = 0.00639307, Final residual = 0.00031802, No Iterations 45
time step continuity errors : sum local = 3.68198e-08, global = -4.28956e-20, cumulative = -5.03804e-19
DICPCG:  Solving for p, Initial residual = 0.00188492, Final residual = 9.39994e-07, No Iterations 170
time step continuity errors : sum local = 1.09308e-10, global = 4.1353e-21, cumulative = -4.99669e-19
ExecutionTime = 7.89 s  ClockTime = 8 s

Time = 0.057

Courant Number mean: 0.0433747 max: 0.700731
smoothSolver:  Solving for Ux, Initial residual = 0.00243292, Final residual = 1.71212e-06, No Iterations 2
smoothSolver:  Solving for Uy, Initial residual = 0.00316296, Final residual = 2.03142e-06, No Iterations 2
DICPCG:  Solving for p, Initial residual = 0.00639165, Final residual = 0.000317848, No Iterations 45
time step continuity errors : sum local = 3.68556e-08, global = 4.55121e-20, cumulative = -4.54157e-19
DICPCG:  Solving for p, Initial residual = 0.00187636, Final residual = 9.24955e-07, No Iterations 170
time step continuity errors : sum local = 1.07761e-10, global = -3.48474e-20, cumulative = -4.89004e-19
ExecutionTime = 7.96 s  ClockTime = 8 s

Time = 0.0576

Courant Number mean: 0.0435607 max: 0.701188
smoothSolver:  Solving for Ux, Initial residual = 0.00240813, Final residual = 1.69383e-06, No Iterations 2
smoothSolver:  Solving for Uy, Initial residual = 0.00314122, Final residual = 2.0152e-06, No Iterations 2
DICPCG:  Solving for p, Initial residual = 0.00636147, Final residual = 0.000315856, No Iterations 45
time step continuity errors : sum local = 3.66822e-08, global = 2.19266e-20, cumulative = -4.67077e-19
DICPCG:  Solving for p, Initial residual = 0.00187019, Final residual = 8.96932e-07, No Iterations 170
time step continuity errors : sum local = 1.04711e-10, global = 3.0302e-20, cumulative = -4.36775e-19
ExecutionTime = 8.03 s  ClockTime = 8 s

Time = 0.0582

Courant Number mean: 0.0437448 max: 0.701636
smoothSolver:  Solving for Ux, Initial residual = 0.00238373, Final residual = 1.67604e-06, No Iterations 2
smoothSolver:  Solving for Uy, Initial residual = 0.00312012, Final residual = 1.99987e-06, No Iterations 2
DICPCG:  Solving for p, Initial residual = 0.00638221, Final residual = 0.000304215, No Iterations 46
time step continuity errors : sum local = 3.53871e-08, global = 1.18072e-20, cumulative = -4.24968e-19
DICPCG:  Solving for p, Initial residual = 0.00185402, Final residual = 9.75526e-07, No Iterations 175
time step continuity errors : sum local = 1.13461e-10, global = -6.63477e-21, cumulative = -4.31603e-19
ExecutionTime = 8.11 s  ClockTime = 8 s

Time = 0.0588

Courant Number mean: 0.0439272 max: 0.702072
smoothSolver:  Solving for Ux, Initial residual = 0.00235991, Final residual = 1.6587e-06, No Iterations 2
smoothSolver:  Solving for Uy, Initial residual = 0.00309985, Final residual = 1.98521e-06, No Iterations 2
DICPCG:  Solving for p, Initial residual = 0.00635508, Final residual = 0.000302954, No Iterations 46
time step continuity errors : sum local = 3.52941e-08, global = -2.32859e-20, cumulative = -4.54889e-19
DICPCG:  Solving for p, Initial residual = 0.00184585, Final residual = 9.98043e-07, No Iterations 171
time step continuity errors : sum local = 1.16452e-10, global = 9.37775e-21, cumulative = -4.45511e-19
ExecutionTime = 8.18 s  ClockTime = 8 s

Time = 0.0594

Courant Number mean: 0.0441078 max: 0.702499
smoothSolver:  Solving for Ux, Initial residual = 0.00233623, Final residual = 1.6418e-06, No Iterations 2
smoothSolver:  Solving for Uy, Initial residual = 0.00307966, Final residual = 1.97083e-06, No Iterations 2
DICPCG:  Solving for p, Initial residual = 0.0062515, Final residual = 0.000298879, No Iterations 46
time step continuity errors : sum local = 3.48739e-08, global = -2.46541e-20, cumulative = -4.70165e-19
DICPCG:  Solving for p, Initial residual = 0.00183728, Final residual = 9.52667e-07, No Iterations 175
time step continuity errors : sum local = 1.11137e-10, global = 8.1139e-20, cumulative = -3.89026e-19
ExecutionTime = 8.25 s  ClockTime = 9 s

Time = 0.06

Courant Number mean: 0.0442868 max: 0.702915
smoothSolver:  Solving for Ux, Initial residual = 0.00231282, Final residual = 1.62541e-06, No Iterations 2
smoothSolver:  Solving for Uy, Initial residual = 0.00306001, Final residual = 1.95673e-06, No Iterations 2
DICPCG:  Solving for p, Initial residual = 0.00622324, Final residual = 0.000298412, No Iterations 46
time step continuity errors : sum local = 3.48741e-08, global = -2.5147e-20, cumulative = -4.14173e-19
DICPCG:  Solving for p, Initial residual = 0.00183044, Final residual = 9.43976e-07, No Iterations 175
time step continuity errors : sum local = 1.10301e-10, global = 6.60382e-20, cumulative = -3.48135e-19
ExecutionTime = 8.33 s  ClockTime = 9 s

Time = 0.0606

Courant Number mean: 0.0444642 max: 0.703336
smoothSolver:  Solving for Ux, Initial residual = 0.00229016, Final residual = 1.60922e-06, No Iterations 2
smoothSolver:  Solving for Uy, Initial residual = 0.0030406, Final residual = 1.94276e-06, No Iterations 2
DICPCG:  Solving for p, Initial residual = 0.00627789, Final residual = 0.000299814, No Iterations 46
time step continuity errors : sum local = 3.50928e-08, global = 3.81298e-20, cumulative = -3.10005e-19
DICPCG:  Solving for p, Initial residual = 0.00182355, Final residual = 9.37766e-07, No Iterations 175
time step continuity errors : sum local = 1.0974e-10, global = -2.90448e-20, cumulative = -3.3905e-19
ExecutionTime = 8.4 s  ClockTime = 9 s

Time = 0.0612

Courant Number mean: 0.0446412 max: 0.70376
smoothSolver:  Solving for Ux, Initial residual = 0.00226844, Final residual = 1.59316e-06, No Iterations 2
smoothSolver:  Solving for Uy, Initial residual = 0.00302171, Final residual = 1.92905e-06, No Iterations 2
DICPCG:  Solving for p, Initial residual = 0.00626912, Final residual = 0.000297681, No Iterations 46
time step continuity errors : sum local = 3.4895e-08, global = -2.34481e-20, cumulative = -3.62498e-19
DICPCG:  Solving for p, Initial residual = 0.00181602, Final residual = 9.84642e-07, No Iterations 170
time step continuity errors : sum local = 1.15795e-10, global = -7.627e-20, cumulative = -4.38768e-19
ExecutionTime = 8.47 s  ClockTime = 9 s

Time = 0.0618

Courant Number mean: 0.0448179 max: 0.704177
smoothSolver:  Solving for Ux, Initial residual = 0.00224747, Final residual = 1.57722e-06, No Iterations 2
smoothSolver:  Solving for Uy, Initial residual = 0.00300362, Final residual = 1.91573e-06, No Iterations 2
DICPCG:  Solving for p, Initial residual = 0.00629054, Final residual = 0.000302015, No Iterations 46
time step continuity errors : sum local = 3.54579e-08, global = -3.51002e-20, cumulative = -4.73868e-19
DICPCG:  Solving for p, Initial residual = 0.00181307, Final residual = 9.38884e-07, No Iterations 175
time step continuity errors : sum local = 1.10229e-10, global = -5.13318e-21, cumulative = -4.79001e-19
ExecutionTime = 8.54 s  ClockTime = 9 s

Time = 0.0624

Courant Number mean: 0.044994 max: 0.704587
smoothSolver:  Solving for Ux, Initial residual = 0.00222709, Final residual = 1.5615e-06, No Iterations 2
smoothSolver:  Solving for Uy, Initial residual = 0.0029858, Final residual = 1.90266e-06, No Iterations 2
DICPCG:  Solving for p, Initial residual = 0.00642193, Final residual = 0.000316843, No Iterations 45
time step continuity errors : sum local = 3.72531e-08, global = 9.06512e-20, cumulative = -3.8835e-19
DICPCG:  Solving for p, Initial residual = 0.00179201, Final residual = 9.78743e-07, No Iterations 167
time step continuity errors : sum local = 1.1618e-10, global = -3.8369e-20, cumulative = -4.26719e-19
ExecutionTime = 8.62 s  ClockTime = 9 s

Time = 0.063

Courant Number mean: 0.0451696 max: 0.704987
smoothSolver:  Solving for Ux, Initial residual = 0.00220679, Final residual = 1.54585e-06, No Iterations 2
smoothSolver:  Solving for Uy, Initial residual = 0.00296759, Final residual = 1.88929e-06, No Iterations 2
DICPCG:  Solving for p, Initial residual = 0.0063679, Final residual = 0.00031098, No Iterations 45
time step continuity errors : sum local = 3.66177e-08, global = -7.68741e-20, cumulative = -5.03593e-19
DICPCG:  Solving for p, Initial residual = 0.00182738, Final residual = 9.42402e-07, No Iterations 151
time step continuity errors : sum local = 1.11308e-10, global = -3.81171e-20, cumulative = -5.41711e-19
ExecutionTime = 8.69 s  ClockTime = 9 s

Time = 0.0636

Courant Number mean: 0.0453442 max: 0.705377
smoothSolver:  Solving for Ux, Initial residual = 0.00218666, Final residual = 1.53044e-06, No Iterations 2
smoothSolver:  Solving for Uy, Initial residual = 0.0029508, Final residual = 1.8768e-06, No Iterations 2
DICPCG:  Solving for p, Initial residual = 0.00605665, Final residual = 0.000295216, No Iterations 46
time step continuity errors : sum local = 3.48165e-08, global = 1.62795e-20, cumulative = -5.25431e-19
DICPCG:  Solving for p, Initial residual = 0.00177806, Final residual = 9.88166e-07, No Iterations 170
time step continuity errors : sum local = 1.16899e-10, global = -2.42769e-20, cumulative = -5.49708e-19
ExecutionTime = 8.76 s  ClockTime = 9 s

Time = 0.0642

Courant Number mean: 0.0455176 max: 0.705759
smoothSolver:  Solving for Ux, Initial residual = 0.00216664, Final residual = 1.5153e-06, No Iterations 2
smoothSolver:  Solving for Uy, Initial residual = 0.00293386, Final residual = 1.86469e-06, No Iterations 2
DICPCG:  Solving for p, Initial residual = 0.00606538, Final residual = 0.000294599, No Iterations 46
time step continuity errors : sum local = 3.47975e-08, global = -1.43315e-20, cumulative = -5.64039e-19
DICPCG:  Solving for p, Initial residual = 0.00177837, Final residual = 9.86897e-07, No Iterations 171
time step continuity errors : sum local = 1.16758e-10, global = 4.05067e-20, cumulative = -5.23533e-19
ExecutionTime = 8.83 s  ClockTime = 9 s

Time = 0.0648

Courant Number mean: 0.0456901 max: 0.706131
smoothSolver:  Solving for Ux, Initial residual = 0.00214693, Final residual = 1.50051e-06, No Iterations 2
smoothSolver:  Solving for Uy, Initial residual = 0.00291743, Final residual = 1.85294e-06, No Iterations 2
DICPCG:  Solving for p, Initial residual = 0.00603114, Final residual = 0.000292816, No Iterations 46
time step continuity errors : sum local = 3.46352e-08, global = -2.63931e-20, cumulative = -5.49926e-19
DICPCG:  Solving for p, Initial residual = 0.00176961, Final residual = 9.94182e-07, No Iterations 170
time step continuity errors : sum local = 1.17913e-10, global = -9.00236e-21, cumulative = -5.58928e-19
ExecutionTime = 8.9 s  ClockTime = 9 s

Time = 0.0654

Courant Number mean: 0.0458615 max: 0.706496
smoothSolver:  Solving for Ux, Initial residual = 0.0021273, Final residual = 1.48609e-06, No Iterations 2
[...]
time step continuity errors : sum local = 1.8945e-10, global = -1.38514e-19, cumulative = -7.51743e-18
ExecutionTime = 295.87 s  ClockTime = 296 s

Time = 2.9844

Courant Number mean: 0.230294 max: 0.731538
smoothSolver:  Solving for Ux, Initial residual = 6.10661e-06, Final residual = 6.10661e-06, No Iterations 0
smoothSolver:  Solving for Uy, Initial residual = 6.69576e-06, Final residual = 6.69576e-06, No Iterations 0
DICPCG:  Solving for p, Initial residual = 5.9209e-06, Final residual = 9.02549e-07, No Iterations 103
time step continuity errors : sum local = 1.53783e-10, global = 6.093e-21, cumulative = -7.51134e-18
DICPCG:  Solving for p, Initial residual = 3.86371e-06, Final residual = 9.95673e-07, No Iterations 23
time step continuity errors : sum local = 1.7691e-10, global = -1.05225e-19, cumulative = -7.61656e-18
ExecutionTime = 295.92 s  ClockTime = 296 s

Time = 2.985

Courant Number mean: 0.230296 max: 0.731539
smoothSolver:  Solving for Ux, Initial residual = 6.09871e-06, Final residual = 6.09871e-06, No Iterations 0
smoothSolver:  Solving for Uy, Initial residual = 6.6893e-06, Final residual = 6.6893e-06, No Iterations 0
DICPCG:  Solving for p, Initial residual = 6.13807e-06, Final residual = 9.29257e-07, No Iterations 27
time step continuity errors : sum local = 1.89799e-10, global = -1.0856e-19, cumulative = -7.72512e-18
DICPCG:  Solving for p, Initial residual = 4.00507e-06, Final residual = 8.96858e-07, No Iterations 27
time step continuity errors : sum local = 1.91622e-10, global = -2.60889e-20, cumulative = -7.75121e-18
ExecutionTime = 295.94 s  ClockTime = 296 s

Time = 2.9856

Courant Number mean: 0.230298 max: 0.731539
smoothSolver:  Solving for Ux, Initial residual = 6.09464e-06, Final residual = 6.09464e-06, No Iterations 0
smoothSolver:  Solving for Uy, Initial residual = 6.68164e-06, Final residual = 6.68164e-06, No Iterations 0
DICPCG:  Solving for p, Initial residual = 5.95432e-06, Final residual = 8.73581e-07, No Iterations 115
time step continuity errors : sum local = 1.48644e-10, global = 8.3597e-20, cumulative = -7.66761e-18
DICPCG:  Solving for p, Initial residual = 3.85974e-06, Final residual = 9.2828e-07, No Iterations 23
time step continuity errors : sum local = 1.61056e-10, global = 5.60953e-20, cumulative = -7.61152e-18
ExecutionTime = 295.98 s  ClockTime = 296 s

Time = 2.9862

Courant Number mean: 0.2303 max: 0.731539
smoothSolver:  Solving for Ux, Initial residual = 6.08617e-06, Final residual = 6.08617e-06, No Iterations 0
smoothSolver:  Solving for Uy, Initial residual = 6.67589e-06, Final residual = 6.67589e-06, No Iterations 0
DICPCG:  Solving for p, Initial residual = 6.18799e-06, Final residual = 9.66022e-07, No Iterations 28
time step continuity errors : sum local = 1.88515e-10, global = -1.39379e-19, cumulative = -7.7509e-18
DICPCG:  Solving for p, Initial residual = 4.00926e-06, Final residual = 9.77999e-07, No Iterations 28
time step continuity errors : sum local = 1.92036e-10, global = 4.03037e-20, cumulative = -7.71059e-18
ExecutionTime = 296 s  ClockTime = 296 s

Time = 2.9868

Courant Number mean: 0.230302 max: 0.73154
smoothSolver:  Solving for Ux, Initial residual = 6.08021e-06, Final residual = 6.08021e-06, No Iterations 0
smoothSolver:  Solving for Uy, Initial residual = 6.66804e-06, Final residual = 6.66804e-06, No Iterations 0
DICPCG:  Solving for p, Initial residual = 5.94339e-06, Final residual = 9.30442e-07, No Iterations 103
time step continuity errors : sum local = 1.58558e-10, global = 3.82037e-20, cumulative = -7.67239e-18
DICPCG:  Solving for p, Initial residual = 3.85913e-06, Final residual = 9.93599e-07, No Iterations 23
time step continuity errors : sum local = 1.76875e-10, global = -7.46815e-20, cumulative = -7.74707e-18
ExecutionTime = 296.05 s  ClockTime = 296 s

Time = 2.9874

Courant Number mean: 0.230304 max: 0.73154
smoothSolver:  Solving for Ux, Initial residual = 6.07238e-06, Final residual = 6.07238e-06, No Iterations 0
smoothSolver:  Solving for Uy, Initial residual = 6.66147e-06, Final residual = 6.66147e-06, No Iterations 0
DICPCG:  Solving for p, Initial residual = 6.14633e-06, Final residual = 9.42497e-07, No Iterations 27
time step continuity errors : sum local = 1.93273e-10, global = -7.34587e-21, cumulative = -7.75442e-18
DICPCG:  Solving for p, Initial residual = 4.00585e-06, Final residual = 9.13688e-07, No Iterations 27
time step continuity errors : sum local = 1.95868e-10, global = 6.6234e-20, cumulative = -7.68818e-18
ExecutionTime = 296.07 s  ClockTime = 296 s

Time = 2.988

Courant Number mean: 0.230306 max: 0.73154
smoothSolver:  Solving for Ux, Initial residual = 6.06835e-06, Final residual = 6.06835e-06, No Iterations 0
smoothSolver:  Solving for Uy, Initial residual = 6.65391e-06, Final residual = 6.65391e-06, No Iterations 0
DICPCG:  Solving for p, Initial residual = 5.93737e-06, Final residual = 8.81724e-07, No Iterations 115
time step continuity errors : sum local = 1.50023e-10, global = -2.98228e-20, cumulative = -7.71801e-18
DICPCG:  Solving for p, Initial residual = 3.84212e-06, Final residual = 9.18713e-07, No Iterations 23
time step continuity errors : sum local = 1.5971e-10, global = -9.23609e-20, cumulative = -7.81037e-18
ExecutionTime = 296.12 s  ClockTime = 296 s

Time = 2.9886

Courant Number mean: 0.230308 max: 0.731541
smoothSolver:  Solving for Ux, Initial residual = 6.05988e-06, Final residual = 6.05988e-06, No Iterations 0
smoothSolver:  Solving for Uy, Initial residual = 6.64828e-06, Final residual = 6.64828e-06, No Iterations 0
DICPCG:  Solving for p, Initial residual = 6.11438e-06, Final residual = 9.75714e-07, No Iterations 28
time step continuity errors : sum local = 1.91385e-10, global = 1.19475e-20, cumulative = -7.79842e-18
DICPCG:  Solving for p, Initial residual = 3.94861e-06, Final residual = 9.43655e-07, No Iterations 103
time step continuity errors : sum local = 1.60503e-10, global = -1.14802e-19, cumulative = -7.91322e-18
ExecutionTime = 296.16 s  ClockTime = 296 s

Time = 2.9892

Courant Number mean: 0.23031 max: 0.731541
smoothSolver:  Solving for Ux, Initial residual = 6.05208e-06, Final residual = 6.05208e-06, No Iterations 0
smoothSolver:  Solving for Uy, Initial residual = 6.64108e-06, Final residual = 6.64108e-06, No Iterations 0
DICPCG:  Solving for p, Initial residual = 5.84624e-06, Final residual = 9.39586e-07, No Iterations 27
time step continuity errors : sum local = 1.71606e-10, global = 4.19009e-20, cumulative = -7.87132e-18
DICPCG:  Solving for p, Initial residual = 3.85917e-06, Final residual = 9.96468e-07, No Iterations 23
time step continuity errors : sum local = 1.86256e-10, global = 2.45789e-22, cumulative = -7.87107e-18
ExecutionTime = 296.18 s  ClockTime = 297 s

Time = 2.9898

Courant Number mean: 0.230312 max: 0.731541
smoothSolver:  Solving for Ux, Initial residual = 6.048e-06, Final residual = 6.048e-06, No Iterations 0
smoothSolver:  Solving for Uy, Initial residual = 6.63292e-06, Final residual = 6.63292e-06, No Iterations 0
DICPCG:  Solving for p, Initial residual = 5.91301e-06, Final residual = 9.39106e-07, No Iterations 27
time step continuity errors : sum local = 1.90923e-10, global = 2.98046e-20, cumulative = -7.84127e-18
DICPCG:  Solving for p, Initial residual = 3.86308e-06, Final residual = 9.89753e-07, No Iterations 26
time step continuity errors : sum local = 2.04372e-10, global = 4.36654e-20, cumulative = -7.7976e-18
ExecutionTime = 296.21 s  ClockTime = 297 s

Time = 2.9904

Courant Number mean: 0.230314 max: 0.731542
smoothSolver:  Solving for Ux, Initial residual = 6.04166e-06, Final residual = 6.04166e-06, No Iterations 0
smoothSolver:  Solving for Uy, Initial residual = 6.62643e-06, Final residual = 6.62643e-06, No Iterations 0
DICPCG:  Solving for p, Initial residual = 5.90454e-06, Final residual = 9.79675e-07, No Iterations 114
time step continuity errors : sum local = 1.67027e-10, global = -6.62287e-20, cumulative = -7.86383e-18
DICPCG:  Solving for p, Initial residual = 3.82054e-06, Final residual = 9.34695e-07, No Iterations 23
time step continuity errors : sum local = 1.61434e-10, global = 3.37621e-20, cumulative = -7.83007e-18
ExecutionTime = 296.25 s  ClockTime = 297 s

Time = 2.991

Courant Number mean: 0.230316 max: 0.731542
smoothSolver:  Solving for Ux, Initial residual = 6.03276e-06, Final residual = 6.03276e-06, No Iterations 0
smoothSolver:  Solving for Uy, Initial residual = 6.62036e-06, Final residual = 6.62036e-06, No Iterations 0
DICPCG:  Solving for p, Initial residual = 6.02975e-06, Final residual = 9.16435e-07, No Iterations 27
time step continuity errors : sum local = 1.77269e-10, global = 1.90387e-20, cumulative = -7.81103e-18
DICPCG:  Solving for p, Initial residual = 3.86556e-06, Final residual = 9.34006e-07, No Iterations 26
time step continuity errors : sum local = 1.80863e-10, global = 3.41061e-20, cumulative = -7.77693e-18
ExecutionTime = 296.28 s  ClockTime = 297 s

Time = 2.9916

Courant Number mean: 0.230318 max: 0.731542
smoothSolver:  Solving for Ux, Initial residual = 6.02767e-06, Final residual = 6.02767e-06, No Iterations 0
smoothSolver:  Solving for Uy, Initial residual = 6.61299e-06, Final residual = 6.61299e-06, No Iterations 0
DICPCG:  Solving for p, Initial residual = 5.76956e-06, Final residual = 9.25039e-07, No Iterations 102
time step continuity errors : sum local = 1.57661e-10, global = -9.09482e-20, cumulative = -7.86787e-18
DICPCG:  Solving for p, Initial residual = 3.78614e-06, Final residual = 9.70552e-07, No Iterations 23
time step continuity errors : sum local = 1.72224e-10, global = -5.03575e-21, cumulative = -7.87291e-18
ExecutionTime = 296.32 s  ClockTime = 297 s

Time = 2.9922

Courant Number mean: 0.23032 max: 0.731543
smoothSolver:  Solving for Ux, Initial residual = 6.02033e-06, Final residual = 6.02033e-06, No Iterations 0
smoothSolver:  Solving for Uy, Initial residual = 6.60674e-06, Final residual = 6.60674e-06, No Iterations 0
DICPCG:  Solving for p, Initial residual = 6.0237e-06, Final residual = 8.80435e-07, No Iterations 27
time step continuity errors : sum local = 1.79633e-10, global = 1.00571e-19, cumulative = -7.77234e-18
DICPCG:  Solving for p, Initial residual = 3.87167e-06, Final residual = 9.41749e-07, No Iterations 26
time step continuity errors : sum local = 1.96724e-10, global = -5.12426e-20, cumulative = -7.82358e-18
ExecutionTime = 296.34 s  ClockTime = 297 s

Time = 2.9928

Courant Number mean: 0.230322 max: 0.731543
smoothSolver:  Solving for Ux, Initial residual = 6.01598e-06, Final residual = 6.01598e-06, No Iterations 0
smoothSolver:  Solving for Uy, Initial residual = 6.59884e-06, Final residual = 6.59884e-06, No Iterations 0
DICPCG:  Solving for p, Initial residual = 5.90085e-06, Final residual = 8.64543e-07, No Iterations 115
time step continuity errors : sum local = 1.47222e-10, global = 1.30339e-19, cumulative = -7.69324e-18
DICPCG:  Solving for p, Initial residual = 3.77083e-06, Final residual = 9.10072e-07, No Iterations 23
time step continuity errors : sum local = 1.57594e-10, global = 1.82236e-19, cumulative = -7.51101e-18
ExecutionTime = 296.39 s  ClockTime = 297 s

Time = 2.9934

Courant Number mean: 0.230324 max: 0.731543
smoothSolver:  Solving for Ux, Initial residual = 6.00751e-06, Final residual = 6.00751e-06, No Iterations 0
smoothSolver:  Solving for Uy, Initial residual = 6.59285e-06, Final residual = 6.59285e-06, No Iterations 0
DICPCG:  Solving for p, Initial residual = 5.98488e-06, Final residual = 9.82346e-07, No Iterations 27
time step continuity errors : sum local = 1.89484e-10, global = 3.6037e-20, cumulative = -7.47497e-18
DICPCG:  Solving for p, Initial residual = 3.88321e-06, Final residual = 9.33729e-07, No Iterations 27
time step continuity errors : sum local = 1.82591e-10, global = 7.52572e-20, cumulative = -7.39971e-18
ExecutionTime = 296.41 s  ClockTime = 297 s

Time = 2.994

Courant Number mean: 0.230326 max: 0.731544
smoothSolver:  Solving for Ux, Initial residual = 6.00169e-06, Final residual = 6.00169e-06, No Iterations 0
smoothSolver:  Solving for Uy, Initial residual = 6.58543e-06, Final residual = 6.58543e-06, No Iterations 0
DICPCG:  Solving for p, Initial residual = 5.69533e-06, Final residual = 9.84446e-07, No Iterations 102
time step continuity errors : sum local = 1.67771e-10, global = 3.08057e-20, cumulative = -7.36891e-18
DICPCG:  Solving for p, Initial residual = 3.80726e-06, Final residual = 9.86371e-07, No Iterations 23
time step continuity errors : sum local = 1.75121e-10, global = 9.72919e-21, cumulative = -7.35918e-18
ExecutionTime = 296.46 s  ClockTime = 297 s

Time = 2.9946

Courant Number mean: 0.230328 max: 0.731544
smoothSolver:  Solving for Ux, Initial residual = 5.99404e-06, Final residual = 5.99404e-06, No Iterations 0
smoothSolver:  Solving for Uy, Initial residual = 6.57916e-06, Final residual = 6.57916e-06, No Iterations 0
DICPCG:  Solving for p, Initial residual = 6.07066e-06, Final residual = 9.05628e-07, No Iterations 27
time step continuity errors : sum local = 1.85101e-10, global = -2.2176e-19, cumulative = -7.58094e-18
DICPCG:  Solving for p, Initial residual = 3.85233e-06, Final residual = 9.58687e-07, No Iterations 26
time step continuity errors : sum local = 2.00903e-10, global = 9.21341e-20, cumulative = -7.4888e-18
ExecutionTime = 296.48 s  ClockTime = 297 s

Time = 2.9952

Courant Number mean: 0.23033 max: 0.731544
smoothSolver:  Solving for Ux, Initial residual = 5.98999e-06, Final residual = 5.98999e-06, No Iterations 0
smoothSolver:  Solving for Uy, Initial residual = 6.5716e-06, Final residual = 6.5716e-06, No Iterations 0
DICPCG:  Solving for p, Initial residual = 5.92514e-06, Final residual = 8.78933e-07, No Iterations 115
time step continuity errors : sum local = 1.49606e-10, global = 2.00846e-20, cumulative = -7.46872e-18
DICPCG:  Solving for p, Initial residual = 3.76125e-06, Final residual = 9.14874e-07, No Iterations 23
time step continuity errors : sum local = 1.58737e-10, global = 5.11029e-20, cumulative = -7.41762e-18
ExecutionTime = 296.52 s  ClockTime = 297 s

Time = 2.9958

Courant Number mean: 0.230332 max: 0.731545
smoothSolver:  Solving for Ux, Initial residual = 5.98172e-06, Final residual = 5.98172e-06, No Iterations 0
smoothSolver:  Solving for Uy, Initial residual = 6.5658e-06, Final residual = 6.5658e-06, No Iterations 0
DICPCG:  Solving for p, Initial residual = 6.04532e-06, Final residual = 9.93484e-07, No Iterations 27
time step continuity errors : sum local = 1.92633e-10, global = -1.21854e-19, cumulative = -7.53947e-18
DICPCG:  Solving for p, Initial residual = 3.90646e-06, Final residual = 9.43034e-07, No Iterations 27
time step continuity errors : sum local = 1.85641e-10, global = 1.30695e-19, cumulative = -7.40877e-18
ExecutionTime = 296.55 s  ClockTime = 297 s

Time = 2.9964

Courant Number mean: 0.230334 max: 0.731545
smoothSolver:  Solving for Ux, Initial residual = 5.97581e-06, Final residual = 5.97581e-06, No Iterations 0
smoothSolver:  Solving for Uy, Initial residual = 6.55822e-06, Final residual = 6.55822e-06, No Iterations 0
DICPCG:  Solving for p, Initial residual = 5.78868e-06, Final residual = 9.85006e-07, No Iterations 103
time step continuity errors : sum local = 1.67847e-10, global = 1.46105e-20, cumulative = -7.39416e-18
DICPCG:  Solving for p, Initial residual = 3.79982e-06, Final residual = 9.9948e-07, No Iterations 23
time step continuity errors : sum local = 1.77669e-10, global = -1.50173e-20, cumulative = -7.40918e-18
ExecutionTime = 296.59 s  ClockTime = 297 s

Time = 2.997

Courant Number mean: 0.230336 max: 0.731545
smoothSolver:  Solving for Ux, Initial residual = 5.96816e-06, Final residual = 5.96816e-06, No Iterations 0
smoothSolver:  Solving for Uy, Initial residual = 6.55175e-06, Final residual = 6.55175e-06, No Iterations 0
DICPCG:  Solving for p, Initial residual = 6.07511e-06, Final residual = 9.44772e-07, No Iterations 27
time step continuity errors : sum local = 1.93053e-10, global = 4.48267e-20, cumulative = -7.36436e-18
DICPCG:  Solving for p, Initial residual = 3.86026e-06, Final residual = 9.16322e-07, No Iterations 27
time step continuity errors : sum local = 1.95689e-10, global = -1.69025e-20, cumulative = -7.38126e-18
ExecutionTime = 296.61 s  ClockTime = 297 s

Time = 2.9976

Courant Number mean: 0.230338 max: 0.731546
smoothSolver:  Solving for Ux, Initial residual = 5.96422e-06, Final residual = 5.96422e-06, No Iterations 0
smoothSolver:  Solving for Uy, Initial residual = 6.54436e-06, Final residual = 6.54436e-06, No Iterations 0
DICPCG:  Solving for p, Initial residual = 5.79101e-06, Final residual = 9.98714e-07, No Iterations 114
time step continuity errors : sum local = 1.7001e-10, global = -7.64955e-21, cumulative = -7.38891e-18
DICPCG:  Solving for p, Initial residual = 3.79719e-06, Final residual = 8.9608e-07, No Iterations 23
time step continuity errors : sum local = 1.55826e-10, global = 4.57233e-20, cumulative = -7.34318e-18
ExecutionTime = 296.66 s  ClockTime = 297 s

Time = 2.9982

Courant Number mean: 0.23034 max: 0.731546
smoothSolver:  Solving for Ux, Initial residual = 5.95587e-06, Final residual = 5.95587e-06, No Iterations 0
smoothSolver:  Solving for Uy, Initial residual = 6.53878e-06, Final residual = 6.53878e-06, No Iterations 0
DICPCG:  Solving for p, Initial residual = 5.98539e-06, Final residual = 9.50475e-07, No Iterations 28
time step continuity errors : sum local = 1.86634e-10, global = 4.47246e-20, cumulative = -7.29846e-18
DICPCG:  Solving for p, Initial residual = 3.8606e-06, Final residual = 9.93302e-07, No Iterations 28
time step continuity errors : sum local = 1.95714e-10, global = 9.54312e-20, cumulative = -7.20303e-18
ExecutionTime = 296.69 s  ClockTime = 297 s

Time = 2.9988

Courant Number mean: 0.230342 max: 0.731546
smoothSolver:  Solving for Ux, Initial residual = 5.95002e-06, Final residual = 5.95002e-06, No Iterations 0
smoothSolver:  Solving for Uy, Initial residual = 6.53112e-06, Final residual = 6.53112e-06, No Iterations 0
DICPCG:  Solving for p, Initial residual = 5.72701e-06, Final residual = 9.26411e-07, No Iterations 103
time step continuity errors : sum local = 1.57895e-10, global = -9.13799e-20, cumulative = -7.29441e-18
DICPCG:  Solving for p, Initial residual = 3.76097e-06, Final residual = 9.51858e-07, No Iterations 23
time step continuity errors : sum local = 1.69883e-10, global = 2.44605e-20, cumulative = -7.26995e-18
ExecutionTime = 296.73 s  ClockTime = 297 s

Time = 2.9994

Courant Number mean: 0.230344 max: 0.731547
smoothSolver:  Solving for Ux, Initial residual = 5.94246e-06, Final residual = 5.94246e-06, No Iterations 0
smoothSolver:  Solving for Uy, Initial residual = 6.52463e-06, Final residual = 6.52463e-06, No Iterations 0
DICPCG:  Solving for p, Initial residual = 5.94104e-06, Final residual = 9.22997e-07, No Iterations 27
time step continuity errors : sum local = 1.9061e-10, global = 9.82217e-20, cumulative = -7.17173e-18
DICPCG:  Solving for p, Initial residual = 3.86e-06, Final residual = 9.43699e-07, No Iterations 27
time step continuity errors : sum local = 2.01717e-10, global = -3.2075e-20, cumulative = -7.2038e-18
ExecutionTime = 296.75 s  ClockTime = 297 s

Time = 3

Courant Number mean: 0.230346 max: 0.731547
smoothSolver:  Solving for Ux, Initial residual = 5.93855e-06, Final residual = 5.93855e-06, No Iterations 0
smoothSolver:  Solving for Uy, Initial residual = 6.51725e-06, Final residual = 6.51725e-06, No Iterations 0
DICPCG:  Solving for p, Initial residual = 5.78307e-06, Final residual = 9.9162e-07, No Iterations 114
time step continuity errors : sum local = 1.68809e-10, global = -2.2433e-20, cumulative = -7.22623e-18
DICPCG:  Solving for p, Initial residual = 3.78478e-06, Final residual = 8.95419e-07, No Iterations 23
time step continuity errors : sum local = 1.55971e-10, global = -4.59508e-20, cumulative = -7.27218e-18
ExecutionTime = 296.84 s  ClockTime = 297 s

End

