/*---------------------------------------------------------------------------*\
| =========                 |                                                 |
| \\      /  F ield         | OpenFOAM: The Open Source CFD Toolbox           |
|  \\    /   O peration     | Version:  2112                                  |
|   \\  /    A nd           | Website:  www.openfoam.com                      |
|    \\/     M anipulation  |                                                 |
\*---------------------------------------------------------------------------*/
Build  : _14aeaf8dab-20211220 OPENFOAM=2112 version=v2112
Arch   : "LSB;label=32;scalar=64"
Exec   : pimpleFoam
Date   : Feb 05 2023
Time   : 18:59:50
Host   : dia-Precision-7920-Tower
PID    : 1661541
I/O    : uncollated
Case   : /home/corsi/OpenFOAM/corsi-v2112/run/RODOLFO/Fluid-dynamics/poiselle_exam
nProcs : 1
trapFpe: Floating point exception trapping enabled (FOAM_SIGFPE).
fileModificationChecking : Monitoring run-time modified files using timeStampMaster (fileModificationSkew 5, maxFileModificationPolls 20)
allowSystemOperations : Allowing user-supplied system call operations

// * * * * * * * * * * * * * * * * * * * * * * * * * * * * * * * * * * * * * //
Create time

Create mesh for time = 0


PIMPLE: Operating solver in PISO mode

Reading field p

Reading field U

Reading/calculating face flux field phi

Selecting incompressible transport model Newtonian
Selecting turbulence model type laminar
Selecting laminar stress model Stokes
No MRF models present

Creating finite volume options from "constant/fvOptions"

Selecting finite volume options type meanVelocityForce
    Source: momentumSource
    - selecting all cells
    - selected 25600 cell(s) with volume 0.2
    Initial pressure gradient = 0

Courant Number mean: 0 max: 0
Courant Number mean: 0 max: 0

Starting time loop

--> FOAM Warning : 
    From void Foam::timeControl::read(const Foam::dictionary&)
    in file db/functionObjects/timeControl/timeControl.C at line 131
    Reading "system/controlDict.functions.probes_object" at line 51 to 73
    Found deprecated 'outputControl'
    Use 'writeControl' with 'writeInterval'
    This keyword is 66 months old.

--> FOAM IOWarning :
    Found [v1612] 'functionObjectLibs' entry instead of 'libs' in dictionary "system/controlDict.functions.probes_object"

    This keyword is 60 months old.

--> FOAM Warning : 
    From virtual void Foam::probes::findElements(const Foam::fvMesh&)
    in file probes/probes.C at line 125
    Did not find location (2 0.6 0.05) in any cell. Skipping location.
--> FOAM Warning : 
    From virtual void Foam::probes::findElements(const Foam::fvMesh&)
    in file probes/probes.C at line 125
    Did not find location (2 0.8 0.05) in any cell. Skipping location.
--> FOAM Warning : 
    From virtual void Foam::probes::findElements(const Foam::fvMesh&)
    in file probes/probes.C at line 125
    Did not find location (2 0.9 0.05) in any cell. Skipping location.
--> FOAM Warning : 
    From virtual void Foam::probes::findElements(const Foam::fvMesh&)
    in file probes/probes.C at line 125
    Did not find location (2 0.95 0.05) in any cell. Skipping location.
--> FOAM Warning : 
    From virtual void Foam::probes::findElements(const Foam::fvMesh&)
    in file probes/probes.C at line 125
    Did not find location (2 1 0.05) in any cell. Skipping location.
Courant Number mean: 0 max: 0
Time = 0.005

PIMPLE: iteration 1
GAMG:  Solving for p, Initial residual = 0, Final residual = 0, No Iterations 0
time step continuity errors : sum local = 0, global = 0, cumulative = 0
Pressure gradient source: uncorrected Ubar = 0, pressure gradient = 3423.41
GAMG:  Solving for p, Initial residual = 1, Final residual = 0.0200753, No Iterations 1
time step continuity errors : sum local = 4.14222e-17, global = -1.42299e-20, cumulative = -1.42299e-20
Pressure gradient source: uncorrected Ubar = 0.930758, pressure gradient = 237.042
GAMG:  Solving for p, Initial residual = 0.640483, Final residual = 7.57582e-07, No Iterations 13
time step continuity errors : sum local = 3.15611e-17, global = -2.98633e-19, cumulative = -3.12863e-19
Pressure gradient source: uncorrected Ubar = 0.934266, pressure gradient = 225.034
ExecutionTime = 0.63 s  ClockTime = 1 s

Courant Number mean: 0.373706 max: 0.383012
Time = 0.01

PIMPLE: iteration 1
GAMG:  Solving for p, Initial residual = 0.522186, Final residual = 0.00463991, No Iterations 1
time step continuity errors : sum local = 3.18399e-17, global = -4.91779e-20, cumulative = -3.6204e-19
Pressure gradient source: uncorrected Ubar = 1.05977, pressure gradient = 20.4265
GAMG:  Solving for p, Initial residual = 0.549275, Final residual = 0.00733999, No Iterations 1
time step continuity errors : sum local = 3.20112e-17, global = 2.4323e-20, cumulative = -3.37717e-19
Pressure gradient source: uncorrected Ubar = 1.06076, pressure gradient = 17.0253
GAMG:  Solving for p, Initial residual = 0.530943, Final residual = 3.47463e-07, No Iterations 9
time step continuity errors : sum local = 3.12978e-17, global = -3.29524e-20, cumulative = -3.7067e-19
Pressure gradient source: uncorrected Ubar = 1.06127, pressure gradient = 15.2805
ExecutionTime = 0.7 s  ClockTime = 1 s

Courant Number mean: 0.423078 max: 0.438525
Time = 0.015

PIMPLE: iteration 1
GAMG:  Solving for p, Initial residual = 0.646068, Final residual = 0.0106617, No Iterations 1
time step continuity errors : sum local = 3.17151e-17, global = -3.79967e-20, cumulative = -4.08666e-19
Pressure gradient source: uncorrected Ubar = 1.0004, pressure gradient = 13.9182
GAMG:  Solving for p, Initial residual = 0.674819, Final residual = 0.00903473, No Iterations 1
time step continuity errors : sum local = 3.06792e-17, global = 2.53789e-20, cumulative = -3.83288e-19
Pressure gradient source: uncorrected Ubar = 1.00072, pressure gradient = 12.8019
GAMG:  Solving for p, Initial residual = 0.663556, Final residual = 2.10078e-07, No Iterations 10
time step continuity errors : sum local = 3.08316e-17, global = 5.65688e-20, cumulative = -3.26719e-19
Pressure gradient source: uncorrected Ubar = 1.00096, pressure gradient = 11.9887
ExecutionTime = 0.77 s  ClockTime = 1 s

Courant Number mean: 0.40166 max: 0.421257
Time = 0.02

PIMPLE: iteration 1
GAMG:  Solving for p, Initial residual = 0.672945, Final residual = 0.00877912, No Iterations 1
time step continuity errors : sum local = 3.0519e-17, global = -1.66284e-19, cumulative = -4.93002e-19
Pressure gradient source: uncorrected Ubar = 1.0002, pressure gradient = 11.3204
GAMG:  Solving for p, Initial residual = 0.622467, Final residual = 0.0077665, No Iterations 1
time step continuity errors : sum local = 3.0832e-17, global = 8.85048e-20, cumulative = -4.04497e-19
Pressure gradient source: uncorrected Ubar = 1.00037, pressure gradient = 10.7283
GAMG:  Solving for p, Initial residual = 0.581741, Final residual = 5.2446e-07, No Iterations 12
time step continuity errors : sum local = 3.10133e-17, global = 1.14026e-20, cumulative = -3.93095e-19
Pressure gradient source: uncorrected Ubar = 1.00051, pressure gradient = 10.2526
ExecutionTime = 0.86 s  ClockTime = 1 s

Courant Number mean: 0.4003 max: 0.423453
Time = 0.025

PIMPLE: iteration 1
GAMG:  Solving for p, Initial residual = 0.581193, Final residual = 0.00904256, No Iterations 1
time step continuity errors : sum local = 3.09899e-17, global = -9.34332e-20, cumulative = -4.86528e-19
Pressure gradient source: uncorrected Ubar = 1.00012, pressure gradient = 9.83816
GAMG:  Solving for p, Initial residual = 0.534826, Final residual = 0.00834226, No Iterations 1
time step continuity errors : sum local = 3.02958e-17, global = -1.77821e-19, cumulative = -6.64349e-19
Pressure gradient source: uncorrected Ubar = 1.00023, pressure gradient = 9.45818
GAMG:  Solving for p, Initial residual = 0.512205, Final residual = 7.492e-07, No Iterations 14
time step continuity errors : sum local = 3.07318e-17, global = 2.30191e-19, cumulative = -4.34158e-19
Pressure gradient source: uncorrected Ubar = 1.00033, pressure gradient = 9.13837
ExecutionTime = 0.95 s  ClockTime = 1 s

Courant Number mean: 0.400148 max: 0.426447
Time = 0.03

PIMPLE: iteration 1
GAMG:  Solving for p, Initial residual = 0.539443, Final residual = 0.00940277, No Iterations 1
time step continuity errors : sum local = 2.99176e-17, global = -2.96889e-20, cumulative = -4.63847e-19
Pressure gradient source: uncorrected Ubar = 1.00008, pressure gradient = 8.85046
GAMG:  Solving for p, Initial residual = 0.472878, Final residual = 0.00808402, No Iterations 1
time step continuity errors : sum local = 2.97727e-17, global = 8.20905e-21, cumulative = -4.55638e-19
Pressure gradient source: uncorrected Ubar = 1.00016, pressure gradient = 8.58045
GAMG:  Solving for p, Initial residual = 0.46789, Final residual = 8.54465e-07, No Iterations 12
time step continuity errors : sum local = 3.0389e-17, global = 1.30841e-19, cumulative = -3.24796e-19
Pressure gradient source: uncorrected Ubar = 1.00023, pressure gradient = 8.34702
ExecutionTime = 1.03 s  ClockTime = 1 s

Courant Number mean: 0.400101 max: 0.429254
Time = 0.035

PIMPLE: iteration 1
GAMG:  Solving for p, Initial residual = 0.509376, Final residual = 0.00930191, No Iterations 1
time step continuity errors : sum local = 3.00602e-17, global = -1.09769e-19, cumulative = -4.34565e-19
Pressure gradient source: uncorrected Ubar = 1.00006, pressure gradient = 8.13242
GAMG:  Solving for p, Initial residual = 0.457825, Final residual = 0.00912717, No Iterations 1
time step continuity errors : sum local = 3.01721e-17, global = 1.7148e-19, cumulative = -2.63086e-19
Pressure gradient source: uncorrected Ubar = 1.00012, pressure gradient = 7.92805
GAMG:  Solving for p, Initial residual = 0.451517, Final residual = 4.9487e-07, No Iterations 14
time step continuity errors : sum local = 3.03166e-17, global = 2.02779e-19, cumulative = -6.03069e-20
Pressure gradient source: uncorrected Ubar = 1.00017, pressure gradient = 7.7482
ExecutionTime = 1.12 s  ClockTime = 1 s

Courant Number mean: 0.400076 max: 0.431865
Time = 0.04

PIMPLE: iteration 1
GAMG:  Solving for p, Initial residual = 0.486525, Final residual = 0.00992851, No Iterations 1
time step continuity errors : sum local = 3.01234e-17, global = -5.21765e-20, cumulative = -1.12483e-19
Pressure gradient source: uncorrected Ubar = 1.00005, pressure gradient = 7.58044
GAMG:  Solving for p, Initial residual = 0.45897, Final residual = 0.00913876, No Iterations 1
time step continuity errors : sum local = 3.00115e-17, global = 9.318e-20, cumulative = -1.93035e-20
Pressure gradient source: uncorrected Ubar = 1.0001, pressure gradient = 7.41891
GAMG:  Solving for p, Initial residual = 0.448673, Final residual = 8.90572e-07, No Iterations 13
time step continuity errors : sum local = 3.04144e-17, global = -5.56148e-20, cumulative = -7.49184e-20
Pressure gradient source: uncorrected Ubar = 1.00014, pressure gradient = 7.27495
ExecutionTime = 1.21 s  ClockTime = 1 s

Courant Number mean: 0.40006 max: 0.434316
Time = 0.045

PIMPLE: iteration 1
GAMG:  Solving for p, Initial residual = 0.47292, Final residual = 0.00984063, No Iterations 1
time step continuity errors : sum local = 3.08744e-17, global = 2.06951e-19, cumulative = 1.32032e-19
Pressure gradient source: uncorrected Ubar = 1.00004, pressure gradient = 7.13924
GAMG:  Solving for p, Initial residual = 0.448048, Final residual = 0.00754462, No Iterations 1
time step continuity errors : sum local = 2.97357e-17, global = -2.92493e-20, cumulative = 1.02783e-19
Pressure gradient source: uncorrected Ubar = 1.00008, pressure gradient = 7.00748
GAMG:  Solving for p, Initial residual = 0.439058, Final residual = 5.95177e-07, No Iterations 13
time step continuity errors : sum local = 3.01564e-17, global = -2.28594e-19, cumulative = -1.25811e-19
Pressure gradient source: uncorrected Ubar = 1.00011, pressure gradient = 6.88893
ExecutionTime = 1.3 s  ClockTime = 1 s

Courant Number mean: 0.400049 max: 0.436636
Time = 0.05

PIMPLE: iteration 1
GAMG:  Solving for p, Initial residual = 0.466119, Final residual = 0.0100167, No Iterations 1
time step continuity errors : sum local = 2.99228e-17, global = 9.04459e-20, cumulative = -3.53646e-20
Pressure gradient source: uncorrected Ubar = 1.00003, pressure gradient = 6.77627
GAMG:  Solving for p, Initial residual = 0.43584, Final residual = 0.00866389, No Iterations 1
time step continuity errors : sum local = 2.98423e-17, global = -7.50989e-20, cumulative = -1.10464e-19
Pressure gradient source: uncorrected Ubar = 1.00007, pressure gradient = 6.66618
GAMG:  Solving for p, Initial residual = 0.430561, Final residual = 4.37118e-07, No Iterations 10
time step continuity errors : sum local = 2.99562e-17, global = -1.19952e-20, cumulative = -1.22459e-19
Pressure gradient source: uncorrected Ubar = 1.00009, pressure gradient = 6.5664
ExecutionTime = 1.38 s  ClockTime = 1 s

Courant Number mean: 0.400041 max: 0.438844
Time = 0.055

PIMPLE: iteration 1
GAMG:  Solving for p, Initial residual = 0.454507, Final residual = 0.00856242, No Iterations 1
time step continuity errors : sum local = 2.95514e-17, global = 2.06564e-20, cumulative = -1.01802e-19
Pressure gradient source: uncorrected Ubar = 1.00003, pressure gradient = 6.47097
GAMG:  Solving for p, Initial residual = 0.442763, Final residual = 0.00832592, No Iterations 1
time step continuity errors : sum local = 2.93671e-17, global = -1.64926e-19, cumulative = -2.66729e-19
Pressure gradient source: uncorrected Ubar = 1.00006, pressure gradient = 6.37724
GAMG:  Solving for p, Initial residual = 0.430935, Final residual = 6.41421e-07, No Iterations 9
time step continuity errors : sum local = 2.96844e-17, global = -8.91589e-20, cumulative = -3.55888e-19
Pressure gradient source: uncorrected Ubar = 1.00008, pressure gradient = 6.29177
ExecutionTime = 1.45 s  ClockTime = 1 s

Courant Number mean: 0.400034 max: 0.440959
Time = 0.06

PIMPLE: iteration 1
GAMG:  Solving for p, Initial residual = 0.46522, Final residual = 0.00914104, No Iterations 1
time step continuity errors : sum local = 2.97498e-17, global = -1.44596e-19, cumulative = -5.00484e-19
Pressure gradient source: uncorrected Ubar = 1.00002, pressure gradient = 6.20961
GAMG:  Solving for p, Initial residual = 0.439911, Final residual = 0.00811679, No Iterations 1
time step continuity errors : sum local = 2.96031e-17, global = -1.00438e-19, cumulative = -6.00922e-19
Pressure gradient source: uncorrected Ubar = 1.00005, pressure gradient = 6.12858
GAMG:  Solving for p, Initial residual = 0.439544, Final residual = 7.52531e-07, No Iterations 14
time step continuity errors : sum local = 2.96564e-17, global = -3.75448e-20, cumulative = -6.38467e-19
Pressure gradient source: uncorrected Ubar = 1.00007, pressure gradient = 6.05433
ExecutionTime = 1.54 s  ClockTime = 2 s

Courant Number mean: 0.40003 max: 0.442992
Time = 0.065

PIMPLE: iteration 1
GAMG:  Solving for p, Initial residual = 0.471482, Final residual = 0.0108183, No Iterations 1
time step continuity errors : sum local = 2.91783e-17, global = 1.33842e-19, cumulative = -5.04625e-19
Pressure gradient source: uncorrected Ubar = 1.00002, pressure gradient = 5.98266
GAMG:  Solving for p, Initial residual = 0.430019, Final residual = 0.00771211, No Iterations 1
time step continuity errors : sum local = 2.96668e-17, global = -2.18888e-19, cumulative = -7.23513e-19
Pressure gradient source: uncorrected Ubar = 1.00004, pressure gradient = 5.91171
GAMG:  Solving for p, Initial residual = 0.427998, Final residual = 5.25319e-07, No Iterations 10
time step continuity errors : sum local = 2.99891e-17, global = 9.64725e-20, cumulative = -6.27041e-19
Pressure gradient source: uncorrected Ubar = 1.00006, pressure gradient = 5.84645
ExecutionTime = 1.62 s  ClockTime = 2 s

Courant Number mean: 0.400026 max: 0.444954
Time = 0.07

PIMPLE: iteration 1
GAMG:  Solving for p, Initial residual = 0.469859, Final residual = 0.00940291, No Iterations 1
time step continuity errors : sum local = 2.96782e-17, global = 6.04938e-20, cumulative = -5.66547e-19
Pressure gradient source: uncorrected Ubar = 1.00002, pressure gradient = 5.78322
GAMG:  Solving for p, Initial residual = 0.444122, Final residual = 0.00715214, No Iterations 1
time step continuity errors : sum local = 2.92677e-17, global = -1.41918e-19, cumulative = -7.08465e-19
Pressure gradient source: uncorrected Ubar = 1.00004, pressure gradient = 5.72045
GAMG:  Solving for p, Initial residual = 0.435118, Final residual = 8.08737e-07, No Iterations 12
time step continuity errors : sum local = 2.99914e-17, global = -1.46338e-19, cumulative = -8.54804e-19
Pressure gradient source: uncorrected Ubar = 1.00005, pressure gradient = 5.6625
ExecutionTime = 1.71 s  ClockTime = 2 s

Courant Number mean: 0.400023 max: 0.446854
Time = 0.075

PIMPLE: iteration 1
GAMG:  Solving for p, Initial residual = 0.46947, Final residual = 0.00993745, No Iterations 1
time step continuity errors : sum local = 2.96921e-17, global = 9.7978e-20, cumulative = -7.56826e-19
Pressure gradient source: uncorrected Ubar = 1.00002, pressure gradient = 5.6062
GAMG:  Solving for p, Initial residual = 0.44092, Final residual = 0.00749646, No Iterations 1
time step continuity errors : sum local = 2.89868e-17, global = -1.51063e-19, cumulative = -9.07889e-19
Pressure gradient source: uncorrected Ubar = 1.00003, pressure gradient = 5.55016
GAMG:  Solving for p, Initial residual = 0.441356, Final residual = 1.88578e-07, No Iterations 10
time step continuity errors : sum local = 2.94344e-17, global = -7.92529e-20, cumulative = -9.87141e-19
Pressure gradient source: uncorrected Ubar = 1.00005, pressure gradient = 5.49828
ExecutionTime = 1.78 s  ClockTime = 2 s

Courant Number mean: 0.400021 max: 0.448697
Time = 0.08

PIMPLE: iteration 1
GAMG:  Solving for p, Initial residual = 0.469478, Final residual = 0.0094919, No Iterations 1
time step continuity errors : sum local = 2.93696e-17, global = -2.62285e-19, cumulative = -1.24943e-18
Pressure gradient source: uncorrected Ubar = 1.00001, pressure gradient = 5.44774
GAMG:  Solving for p, Initial residual = 0.437526, Final residual = 0.00774233, No Iterations 1
time step continuity errors : sum local = 2.92772e-17, global = -1.09635e-20, cumulative = -1.26039e-18
Pressure gradient source: uncorrected Ubar = 1.00003, pressure gradient = 5.39732
GAMG:  Solving for p, Initial residual = 0.434971, Final residual = 6.11427e-07, No Iterations 12
time step continuity errors : sum local = 2.90966e-17, global = 1.359e-19, cumulative = -1.12449e-18
Pressure gradient source: uncorrected Ubar = 1.00004, pressure gradient = 5.35053
ExecutionTime = 1.87 s  ClockTime = 2 s

Courant Number mean: 0.400018 max: 0.450489
Time = 0.085

PIMPLE: iteration 1
GAMG:  Solving for p, Initial residual = 0.470364, Final residual = 0.0103433, No Iterations 1
time step continuity errors : sum local = 2.92294e-17, global = 7.77218e-20, cumulative = -1.04677e-18
Pressure gradient source: uncorrected Ubar = 1.00001, pressure gradient = 5.30484
GAMG:  Solving for p, Initial residual = 0.436122, Final residual = 0.00811988, No Iterations 1
time step continuity errors : sum local = 2.87548e-17, global = 1.00597e-20, cumulative = -1.03671e-18
Pressure gradient source: uncorrected Ubar = 1.00003, pressure gradient = 5.25917
GAMG:  Solving for p, Initial residual = 0.436469, Final residual = 3.88904e-07, No Iterations 11
time step continuity errors : sum local = 2.9135e-17, global = 5.64091e-20, cumulative = -9.803e-19
Pressure gradient source: uncorrected Ubar = 1.00004, pressure gradient = 5.2167
ExecutionTime = 1.95 s  ClockTime = 2 s

Courant Number mean: 0.400017 max: 0.452237
Time = 0.09

PIMPLE: iteration 1
GAMG:  Solving for p, Initial residual = 0.457326, Final residual = 0.0103904, No Iterations 1
time step continuity errors : sum local = 2.87284e-17, global = -2.89378e-20, cumulative = -1.00924e-18
Pressure gradient source: uncorrected Ubar = 1.00001, pressure gradient = 5.17514
GAMG:  Solving for p, Initial residual = 0.430114, Final residual = 0.00882995, No Iterations 1
time step continuity errors : sum local = 2.90566e-17, global = -3.24746e-20, cumulative = -1.04171e-18
Pressure gradient source: uncorrected Ubar = 1.00002, pressure gradient = 5.13353
GAMG:  Solving for p, Initial residual = 0.432832, Final residual = 9.69404e-07, No Iterations 9
time step continuity errors : sum local = 2.91679e-17, global = 8.51908e-20, cumulative = -9.56522e-19
Pressure gradient source: uncorrected Ubar = 1.00004, pressure gradient = 5.09476
ExecutionTime = 2.02 s  ClockTime = 2 s

Courant Number mean: 0.400015 max: 0.453942
Time = 0.095

PIMPLE: iteration 1
GAMG:  Solving for p, Initial residual = 0.465006, Final residual = 0.0108675, No Iterations 1
time step continuity errors : sum local = 2.92295e-17, global = 2.55108e-20, cumulative = -9.31011e-19
Pressure gradient source: uncorrected Ubar = 1.00001, pressure gradient = 5.05675
GAMG:  Solving for p, Initial residual = 0.439202, Final residual = 0.00808471, No Iterations 1
time step continuity errors : sum local = 2.91215e-17, global = 1.13358e-19, cumulative = -8.17653e-19
Pressure gradient source: uncorrected Ubar = 1.00002, pressure gradient = 5.01865
GAMG:  Solving for p, Initial residual = 0.433471, Final residual = 6.54156e-07, No Iterations 15
time step continuity errors : sum local = 2.93391e-17, global = 1.91655e-19, cumulative = -6.25998e-19
Pressure gradient source: uncorrected Ubar = 1.00003, pressure gradient = 4.98307
ExecutionTime = 2.09 s  ClockTime = 2 s

Courant Number mean: 0.400014 max: 0.45561
Time = 0.1

PIMPLE: iteration 1
GAMG:  Solving for p, Initial residual = 0.46845, Final residual = 0.0105638, No Iterations 1
time step continuity errors : sum local = 2.95275e-17, global = -9.30322e-20, cumulative = -7.1903e-19
Pressure gradient source: uncorrected Ubar = 1.00001, pressure gradient = 4.94815
GAMG:  Solving for p, Initial residual = 0.450845, Final residual = 0.00935592, No Iterations 1
time step continuity errors : sum local = 2.90126e-17, global = 2.66047e-20, cumulative = -6.92425e-19
Pressure gradient source: uncorrected Ubar = 1.00002, pressure gradient = 4.91309
GAMG:  Solving for p, Initial residual = 0.438632, Final residual = 1.67357e-07, No Iterations 20
time step continuity errors : sum local = 2.91968e-17, global = 4.12449e-20, cumulative = -6.51181e-19
Pressure gradient source: uncorrected Ubar = 1.00003, pressure gradient = 4.88031
ExecutionTime = 2.18 s  ClockTime = 2 s

Courant Number mean: 0.400013 max: 0.457242
Time = 0.105

PIMPLE: iteration 1
GAMG:  Solving for p, Initial residual = 0.470699, Final residual = 0.0101987, No Iterations 1
time step continuity errors : sum local = 2.94128e-17, global = -5.69446e-20, cumulative = -7.08125e-19
Pressure gradient source: uncorrected Ubar = 1.00001, pressure gradient = 4.84808
GAMG:  Solving for p, Initial residual = 0.447225, Final residual = 0.00999221, No Iterations 1
time step continuity errors : sum local = 2.92759e-17, global = -3.24837e-20, cumulative = -7.40609e-19
Pressure gradient source: uncorrected Ubar = 1.00002, pressure gradient = 4.81568
GAMG:  Solving for p, Initial residual = 0.44411, Final residual = 9.32888e-07, No Iterations 12
time step continuity errors : sum local = 2.9242e-17, global = -2.59236e-19, cumulative = -9.99845e-19
Pressure gradient source: uncorrected Ubar = 1.00003, pressure gradient = 4.78535
ExecutionTime = 2.24 s  ClockTime = 2 s

Courant Number mean: 0.400012 max: 0.458843
Time = 0.11

PIMPLE: iteration 1
GAMG:  Solving for p, Initial residual = 0.464643, Final residual = 0.0110813, No Iterations 1
time step continuity errors : sum local = 2.90078e-17, global = 9.84825e-20, cumulative = -9.01362e-19
Pressure gradient source: uncorrected Ubar = 1.00001, pressure gradient = 4.75549
GAMG:  Solving for p, Initial residual = 0.44242, Final residual = 0.00887829, No Iterations 1
time step continuity errors : sum local = 2.91442e-17, global = -5.99437e-20, cumulative = -9.61306e-19
Pressure gradient source: uncorrected Ubar = 1.00002, pressure gradient = 4.72544
GAMG:  Solving for p, Initial residual = 0.438908, Final residual = 6.37961e-07, No Iterations 9
time step continuity errors : sum local = 2.8638e-17, global = -3.92958e-20, cumulative = -1.0006e-18
Pressure gradient source: uncorrected Ubar = 1.00003, pressure gradient = 4.69727
ExecutionTime = 2.29 s  ClockTime = 2 s

Courant Number mean: 0.400011 max: 0.460414
Time = 0.115

PIMPLE: iteration 1
GAMG:  Solving for p, Initial residual = 0.462467, Final residual = 0.0115651, No Iterations 1
time step continuity errors : sum local = 2.8407e-17, global = -3.82008e-20, cumulative = -1.0388e-18
Pressure gradient source: uncorrected Ubar = 1.00001, pressure gradient = 4.66951
GAMG:  Solving for p, Initial residual = 0.440299, Final residual = 0.00895042, No Iterations 1
time step continuity errors : sum local = 2.84954e-17, global = 1.99683e-19, cumulative = -8.39119e-19
Pressure gradient source: uncorrected Ubar = 1.00002, pressure gradient = 4.64155
GAMG:  Solving for p, Initial residual = 0.433313, Final residual = 6.78809e-07, No Iterations 12
time step continuity errors : sum local = 2.87794e-17, global = -8.54288e-20, cumulative = -9.24548e-19
Pressure gradient source: uncorrected Ubar = 1.00002, pressure gradient = 4.6153
ExecutionTime = 2.35 s  ClockTime = 2 s

Courant Number mean: 0.40001 max: 0.461956
Time = 0.12

PIMPLE: iteration 1
GAMG:  Solving for p, Initial residual = 0.46077, Final residual = 0.0087166, No Iterations 1
time step continuity errors : sum local = 2.86286e-17, global = 3.17255e-20, cumulative = -8.92822e-19
Pressure gradient source: uncorrected Ubar = 1.00001, pressure gradient = 4.58941
GAMG:  Solving for p, Initial residual = 0.442213, Final residual = 0.00879062, No Iterations 1
time step continuity errors : sum local = 2.86072e-17, global = -1.79807e-19, cumulative = -1.07263e-18
Pressure gradient source: uncorrected Ubar = 1.00002, pressure gradient = 4.56331
GAMG:  Solving for p, Initial residual = 0.43666, Final residual = 4.35386e-07, No Iterations 13
time step continuity errors : sum local = 2.93546e-17, global = 1.69852e-19, cumulative = -9.02778e-19
Pressure gradient source: uncorrected Ubar = 1.00002, pressure gradient = 4.53878
ExecutionTime = 2.41 s  ClockTime = 2 s

Courant Number mean: 0.40001 max: 0.463473
Time = 0.125

PIMPLE: iteration 1
GAMG:  Solving for p, Initial residual = 0.465589, Final residual = 0.00922467, No Iterations 1
time step continuity errors : sum local = 2.85335e-17, global = -2.5084e-19, cumulative = -1.15362e-18
Pressure gradient source: uncorrected Ubar = 1.00001, pressure gradient = 4.51456
GAMG:  Solving for p, Initial residual = 0.444722, Final residual = 0.00837088, No Iterations 1
time step continuity errors : sum local = 2.84052e-17, global = 7.65779e-20, cumulative = -1.07704e-18
Pressure gradient source: uncorrected Ubar = 1.00001, pressure gradient = 4.49013
GAMG:  Solving for p, Initial residual = 0.430944, Final residual = 7.08879e-07, No Iterations 14
time step continuity errors : sum local = 2.866e-17, global = -1.27692e-19, cumulative = -1.20473e-18
Pressure gradient source: uncorrected Ubar = 1.00002, pressure gradient = 4.46714
ExecutionTime = 2.48 s  ClockTime = 2 s

Courant Number mean: 0.400009 max: 0.464966
Time = 0.13

PIMPLE: iteration 1
GAMG:  Solving for p, Initial residual = 0.463425, Final residual = 0.00835821, No Iterations 1
time step continuity errors : sum local = 2.82771e-17, global = -3.69643e-21, cumulative = -1.20843e-18
Pressure gradient source: uncorrected Ubar = 1.00001, pressure gradient = 4.44443
GAMG:  Solving for p, Initial residual = 0.441741, Final residual = 0.00923727, No Iterations 1
time step continuity errors : sum local = 2.8243e-17, global = -1.69704e-19, cumulative = -1.37813e-18
Pressure gradient source: uncorrected Ubar = 1.00001, pressure gradient = 4.42149
GAMG:  Solving for p, Initial residual = 0.434384, Final residual = 6.19852e-07, No Iterations 15
time step continuity errors : sum local = 2.90199e-17, global = 3.30313e-20, cumulative = -1.3451e-18
Pressure gradient source: uncorrected Ubar = 1.00002, pressure gradient = 4.3999
ExecutionTime = 2.55 s  ClockTime = 3 s

Courant Number mean: 0.400008 max: 0.466436
Time = 0.135

PIMPLE: iteration 1
GAMG:  Solving for p, Initial residual = 0.460572, Final residual = 0.0115064, No Iterations 1
time step continuity errors : sum local = 2.92387e-17, global = 4.91016e-20, cumulative = -1.296e-18
Pressure gradient source: uncorrected Ubar = 1.00001, pressure gradient = 4.37854
GAMG:  Solving for p, Initial residual = 0.438858, Final residual = 0.00923847, No Iterations 1
time step continuity errors : sum local = 2.89125e-17, global = 3.0022e-20, cumulative = -1.26598e-18
Pressure gradient source: uncorrected Ubar = 1.00001, pressure gradient = 4.35696
GAMG:  Solving for p, Initial residual = 0.437029, Final residual = 6.06865e-07, No Iterations 11
time step continuity errors : sum local = 2.92082e-17, global = -5.92833e-20, cumulative = -1.32526e-18
Pressure gradient source: uncorrected Ubar = 1.00002, pressure gradient = 4.33663
ExecutionTime = 2.61 s  ClockTime = 3 s

Courant Number mean: 0.400008 max: 0.467884
Time = 0.14

PIMPLE: iteration 1
GAMG:  Solving for p, Initial residual = 0.47299, Final residual = 0.00935311, No Iterations 1
time step continuity errors : sum local = 2.86416e-17, global = -8.42419e-20, cumulative = -1.4095e-18
Pressure gradient source: uncorrected Ubar = 1.00001, pressure gradient = 4.31651
GAMG:  Solving for p, Initial residual = 0.443344, Final residual = 0.0089541, No Iterations 1
time step continuity errors : sum local = 2.8661e-17, global = -1.32426e-19, cumulative = -1.54193e-18
Pressure gradient source: uncorrected Ubar = 1.00001, pressure gradient = 4.29616
GAMG:  Solving for p, Initial residual = 0.439794, Final residual = 8.0228e-07, No Iterations 17
time step continuity errors : sum local = 2.85146e-17, global = -9.71526e-20, cumulative = -1.63908e-18
Pressure gradient source: uncorrected Ubar = 1.00002, pressure gradient = 4.27697
ExecutionTime = 2.68 s  ClockTime = 3 s

Courant Number mean: 0.400007 max: 0.469312
Time = 0.145

PIMPLE: iteration 1
GAMG:  Solving for p, Initial residual = 0.461176, Final residual = 0.0116542, No Iterations 1
time step continuity errors : sum local = 2.85862e-17, global = 2.15323e-19, cumulative = -1.42376e-18
Pressure gradient source: uncorrected Ubar = 1.00001, pressure gradient = 4.25797
GAMG:  Solving for p, Initial residual = 0.437108, Final residual = 0.00776601, No Iterations 1
time step continuity errors : sum local = 2.84127e-17, global = 3.4605e-20, cumulative = -1.38915e-18
Pressure gradient source: uncorrected Ubar = 1.00001, pressure gradient = 4.23874
GAMG:  Solving for p, Initial residual = 0.439305, Final residual = 2.98719e-07, No Iterations 11
time step continuity errors : sum local = 2.86124e-17, global = 4.07107e-20, cumulative = -1.34844e-18
Pressure gradient source: uncorrected Ubar = 1.00002, pressure gradient = 4.2206
ExecutionTime = 2.74 s  ClockTime = 3 s

Courant Number mean: 0.400007 max: 0.470721
Time = 0.15

PIMPLE: iteration 1
GAMG:  Solving for p, Initial residual = 0.470365, Final residual = 0.00913072, No Iterations 1
time step continuity errors : sum local = 2.8037e-17, global = 1.91544e-19, cumulative = -1.1569e-18
Pressure gradient source: uncorrected Ubar = 1.00001, pressure gradient = 4.20262
GAMG:  Solving for p, Initial residual = 0.45211, Final residual = 0.00829056, No Iterations 1
time step continuity errors : sum local = 2.82259e-17, global = 6.55846e-20, cumulative = -1.09131e-18
Pressure gradient source: uncorrected Ubar = 1.00001, pressure gradient = 4.18442
GAMG:  Solving for p, Initial residual = 0.444475, Final residual = 8.98488e-07, No Iterations 12
time step continuity errors : sum local = 2.87208e-17, global = -9.40313e-20, cumulative = -1.18534e-18
Pressure gradient source: uncorrected Ubar = 1.00002, pressure gradient = 4.16723
ExecutionTime = 2.8 s  ClockTime = 3 s

Courant Number mean: 0.400007 max: 0.472112
Time = 0.155

PIMPLE: iteration 1
GAMG:  Solving for p, Initial residual = 0.480671, Final residual = 0.0113683, No Iterations 1
time step continuity errors : sum local = 2.88991e-17, global = 6.86219e-20, cumulative = -1.11672e-18
Pressure gradient source: uncorrected Ubar = 1, pressure gradient = 4.15019
GAMG:  Solving for p, Initial residual = 0.451247, Final residual = 0.00683981, No Iterations 1
time step continuity errors : sum local = 2.80647e-17, global = 5.84148e-20, cumulative = -1.05831e-18
Pressure gradient source: uncorrected Ubar = 1.00001, pressure gradient = 4.13293
GAMG:  Solving for p, Initial residual = 0.454017, Final residual = 9.56392e-07, No Iterations 11
time step continuity errors : sum local = 2.81157e-17, global = -5.85241e-20, cumulative = -1.11683e-18
Pressure gradient source: uncorrected Ubar = 1.00001, pressure gradient = 4.11662
ExecutionTime = 2.87 s  ClockTime = 3 s

Courant Number mean: 0.400006 max: 0.473486
Time = 0.16

PIMPLE: iteration 1
GAMG:  Solving for p, Initial residual = 0.480226, Final residual = 0.0102432, No Iterations 1
time step continuity errors : sum local = 2.85209e-17, global = -7.56149e-20, cumulative = -1.19245e-18
Pressure gradient source: uncorrected Ubar = 1, pressure gradient = 4.10044
GAMG:  Solving for p, Initial residual = 0.441191, Final residual = 0.0090543, No Iterations 1
time step continuity errors : sum local = 2.88138e-17, global = 8.01996e-20, cumulative = -1.11225e-18
Pressure gradient source: uncorrected Ubar = 1.00001, pressure gradient = 4.08404
GAMG:  Solving for p, Initial residual = 0.44277, Final residual = 3.49838e-07, No Iterations 12
time step continuity errors : sum local = 2.86709e-17, global = -9.10111e-20, cumulative = -1.20326e-18
Pressure gradient source: uncorrected Ubar = 1.00001, pressure gradient = 4.06854
ExecutionTime = 2.93 s  ClockTime = 3 s

Courant Number mean: 0.400006 max: 0.474844
Time = 0.165

PIMPLE: iteration 1
GAMG:  Solving for p, Initial residual = 0.476613, Final residual = 0.00896179, No Iterations 1
time step continuity errors : sum local = 2.83581e-17, global = -1.25794e-19, cumulative = -1.32905e-18
Pressure gradient source: uncorrected Ubar = 1, pressure gradient = 4.05315
GAMG:  Solving for p, Initial residual = 0.446117, Final residual = 0.00812396, No Iterations 1
time step continuity errors : sum local = 2.80526e-17, global = -1.44593e-20, cumulative = -1.34351e-18
Pressure gradient source: uncorrected Ubar = 1.00001, pressure gradient = 4.03755
GAMG:  Solving for p, Initial residual = 0.4405, Final residual = 8.09023e-07, No Iterations 13
time step continuity errors : sum local = 2.83327e-17, global = -5.32423e-20, cumulative = -1.39675e-18
Pressure gradient source: uncorrected Ubar = 1.00001, pressure gradient = 4.02279
ExecutionTime = 2.99 s  ClockTime = 3 s

Courant Number mean: 0.400006 max: 0.476186
Time = 0.17

PIMPLE: iteration 1
GAMG:  Solving for p, Initial residual = 0.470303, Final residual = 0.00800008, No Iterations 1
time step continuity errors : sum local = 2.80211e-17, global = 5.46766e-21, cumulative = -1.39129e-18
Pressure gradient source: uncorrected Ubar = 1, pressure gradient = 4.00814
GAMG:  Solving for p, Initial residual = 0.451372, Final residual = 0.00916154, No Iterations 1
time step continuity errors : sum local = 2.80532e-17, global = 1.70275e-19, cumulative = -1.22101e-18
Pressure gradient source: uncorrected Ubar = 1.00001, pressure gradient = 3.99327
GAMG:  Solving for p, Initial residual = 0.444328, Final residual = 3.97684e-07, No Iterations 10
time step continuity errors : sum local = 2.84275e-17, global = 5.02341e-20, cumulative = -1.17078e-18
Pressure gradient source: uncorrected Ubar = 1.00001, pressure gradient = 3.9792
ExecutionTime = 3.05 s  ClockTime = 3 s

Courant Number mean: 0.400005 max: 0.477513
Time = 0.175

PIMPLE: iteration 1
GAMG:  Solving for p, Initial residual = 0.482596, Final residual = 0.00938194, No Iterations 1
time step continuity errors : sum local = 2.84097e-17, global = -6.78126e-21, cumulative = -1.17756e-18
Pressure gradient source: uncorrected Ubar = 1, pressure gradient = 3.96523
GAMG:  Solving for p, Initial residual = 0.45551, Final residual = 0.00885834, No Iterations 1
time step continuity errors : sum local = 2.81286e-17, global = 2.70088e-19, cumulative = -9.0747e-19
Pressure gradient source: uncorrected Ubar = 1.00001, pressure gradient = 3.95104
GAMG:  Solving for p, Initial residual = 0.446537, Final residual = 1.59432e-07, No Iterations 17
time step continuity errors : sum local = 2.8642e-17, global = 4.62189e-21, cumulative = -9.02848e-19
Pressure gradient source: uncorrected Ubar = 1.00001, pressure gradient = 3.93762
ExecutionTime = 3.12 s  ClockTime = 3 s

Courant Number mean: 0.400005 max: 0.478826
Time = 0.18

PIMPLE: iteration 1
GAMG:  Solving for p, Initial residual = 0.482865, Final residual = 0.00994831, No Iterations 1
time step continuity errors : sum local = 2.86956e-17, global = 4.27159e-20, cumulative = -8.60132e-19
Pressure gradient source: uncorrected Ubar = 1, pressure gradient = 3.92427
GAMG:  Solving for p, Initial residual = 0.461436, Final residual = 0.00949059, No Iterations 1
time step continuity errors : sum local = 2.86313e-17, global = -1.34417e-19, cumulative = -9.94549e-19
Pressure gradient source: uncorrected Ubar = 1.00001, pressure gradient = 3.91072
GAMG:  Solving for p, Initial residual = 0.450019, Final residual = 4.83956e-07, No Iterations 15
time step continuity errors : sum local = 2.83721e-17, global = -9.8815e-20, cumulative = -1.09336e-18
Pressure gradient source: uncorrected Ubar = 1.00001, pressure gradient = 3.89789
ExecutionTime = 3.19 s  ClockTime = 3 s

Courant Number mean: 0.400005 max: 0.480126
Time = 0.185

PIMPLE: iteration 1
GAMG:  Solving for p, Initial residual = 0.481799, Final residual = 0.010633, No Iterations 1
time step continuity errors : sum local = 2.85184e-17, global = 1.60307e-19, cumulative = -9.33057e-19
Pressure gradient source: uncorrected Ubar = 1, pressure gradient = 3.88512
GAMG:  Solving for p, Initial residual = 0.454358, Final residual = 0.00844164, No Iterations 1
time step continuity errors : sum local = 2.77454e-17, global = -2.02253e-20, cumulative = -9.53282e-19
Pressure gradient source: uncorrected Ubar = 1.00001, pressure gradient = 3.87216
GAMG:  Solving for p, Initial residual = 0.450137, Final residual = 5.9692e-07, No Iterations 9
time step continuity errors : sum local = 2.83669e-17, global = 4.83748e-20, cumulative = -9.04907e-19
Pressure gradient source: uncorrected Ubar = 1.00001, pressure gradient = 3.85989
ExecutionTime = 3.24 s  ClockTime = 3 s

Courant Number mean: 0.400005 max: 0.481412
Time = 0.19

PIMPLE: iteration 1
GAMG:  Solving for p, Initial residual = 0.467209, Final residual = 0.00892007, No Iterations 1
time step continuity errors : sum local = 2.83013e-17, global = -9.95445e-20, cumulative = -1.00445e-18
Pressure gradient source: uncorrected Ubar = 1, pressure gradient = 3.84767
GAMG:  Solving for p, Initial residual = 0.450396, Final residual = 0.0106637, No Iterations 1
time step continuity errors : sum local = 2.84082e-17, global = 8.8606e-20, cumulative = -9.15846e-19
Pressure gradient source: uncorrected Ubar = 1.00001, pressure gradient = 3.83526
GAMG:  Solving for p, Initial residual = 0.446692, Final residual = 6.59085e-07, No Iterations 14
time step continuity errors : sum local = 2.81313e-17, global = -6.63388e-20, cumulative = -9.82185e-19
Pressure gradient source: uncorrected Ubar = 1.00001, pressure gradient = 3.8235
ExecutionTime = 3.31 s  ClockTime = 3 s

Courant Number mean: 0.400005 max: 0.482686
Time = 0.195

PIMPLE: iteration 1
GAMG:  Solving for p, Initial residual = 0.479221, Final residual = 0.0118808, No Iterations 1
time step continuity errors : sum local = 2.85188e-17, global = 7.58975e-20, cumulative = -9.06287e-19
Pressure gradient source: uncorrected Ubar = 1, pressure gradient = 3.81179
GAMG:  Solving for p, Initial residual = 0.449041, Final residual = 0.00851233, No Iterations 1
time step continuity errors : sum local = 2.78713e-17, global = 2.02419e-20, cumulative = -8.86045e-19
Pressure gradient source: uncorrected Ubar = 1.00001, pressure gradient = 3.79989
GAMG:  Solving for p, Initial residual = 0.455365, Final residual = 8.06724e-07, No Iterations 14
time step continuity errors : sum local = 2.83436e-17, global = -4.45799e-20, cumulative = -9.30625e-19
Pressure gradient source: uncorrected Ubar = 1.00001, pressure gradient = 3.78861
ExecutionTime = 3.37 s  ClockTime = 3 s

Courant Number mean: 0.400004 max: 0.483947
Time = 0.2

PIMPLE: iteration 1
GAMG:  Solving for p, Initial residual = 0.480574, Final residual = 0.009219, No Iterations 1
time step continuity errors : sum local = 2.83285e-17, global = -3.06757e-20, cumulative = -9.61301e-19
Pressure gradient source: uncorrected Ubar = 1, pressure gradient = 3.77738
GAMG:  Solving for p, Initial residual = 0.465202, Final residual = 0.0112989, No Iterations 1
time step continuity errors : sum local = 2.82957e-17, global = 5.07194e-20, cumulative = -9.10582e-19
Pressure gradient source: uncorrected Ubar = 1.00001, pressure gradient = 3.76596
GAMG:  Solving for p, Initial residual = 0.45024, Final residual = 8.37131e-07, No Iterations 12
time step continuity errors : sum local = 2.80352e-17, global = -1.46591e-19, cumulative = -1.05717e-18
Pressure gradient source: uncorrected Ubar = 1.00001, pressure gradient = 3.75513
ExecutionTime = 3.43 s  ClockTime = 3 s

Courant Number mean: 0.400004 max: 0.485197
Time = 0.205

PIMPLE: iteration 1
GAMG:  Solving for p, Initial residual = 0.493559, Final residual = 0.00897637, No Iterations 1
time step continuity errors : sum local = 2.8358e-17, global = 3.3129e-20, cumulative = -1.02404e-18
Pressure gradient source: uncorrected Ubar = 1, pressure gradient = 3.74435
GAMG:  Solving for p, Initial residual = 0.475186, Final residual = 0.00963803, No Iterations 1
time step continuity errors : sum local = 2.82793e-17, global = -1.42264e-19, cumulative = -1.16631e-18
Pressure gradient source: uncorrected Ubar = 1.00001, pressure gradient = 3.73338
GAMG:  Solving for p, Initial residual = 0.46216, Final residual = 7.13602e-07, No Iterations 12
time step continuity errors : sum local = 2.81498e-17, global = 1.60766e-20, cumulative = -1.15023e-18
Pressure gradient source: uncorrected Ubar = 1.00001, pressure gradient = 3.72298
ExecutionTime = 3.5 s  ClockTime = 3 s

Courant Number mean: 0.400004 max: 0.486436
Time = 0.21

PIMPLE: iteration 1
GAMG:  Solving for p, Initial residual = 0.488738, Final residual = 0.00919421, No Iterations 1
time step continuity errors : sum local = 2.78628e-17, global = 5.50963e-20, cumulative = -1.09513e-18
Pressure gradient source: uncorrected Ubar = 1, pressure gradient = 3.71261
GAMG:  Solving for p, Initial residual = 0.463719, Final residual = 0.0093605, No Iterations 1
time step continuity errors : sum local = 2.79145e-17, global = -1.52976e-19, cumulative = -1.24811e-18
Pressure gradient source: uncorrected Ubar = 1.00001, pressure gradient = 3.70207
GAMG:  Solving for p, Initial residual = 0.461495, Final residual = 8.35199e-07, No Iterations 15
time step continuity errors : sum local = 2.80574e-17, global = 7.01664e-20, cumulative = -1.17794e-18
Pressure gradient source: uncorrected Ubar = 1.00001, pressure gradient = 3.69206
ExecutionTime = 3.57 s  ClockTime = 4 s

Courant Number mean: 0.400004 max: 0.487663
Time = 0.215

PIMPLE: iteration 1
GAMG:  Solving for p, Initial residual = 0.490443, Final residual = 0.010371, No Iterations 1
time step continuity errors : sum local = 2.799e-17, global = -1.85676e-19, cumulative = -1.36362e-18
Pressure gradient source: uncorrected Ubar = 1, pressure gradient = 3.68209
GAMG:  Solving for p, Initial residual = 0.464328, Final residual = 0.00819952, No Iterations 1
time step continuity errors : sum local = 2.76621e-17, global = 1.01044e-19, cumulative = -1.26258e-18
Pressure gradient source: uncorrected Ubar = 1.00001, pressure gradient = 3.67195
GAMG:  Solving for p, Initial residual = 0.457223, Final residual = 8.4654e-07, No Iterations 11
time step continuity errors : sum local = 2.84858e-17, global = -3.43367e-20, cumulative = -1.29691e-18
Pressure gradient source: uncorrected Ubar = 1.00001, pressure gradient = 3.66232
ExecutionTime = 3.63 s  ClockTime = 4 s

Courant Number mean: 0.400004 max: 0.48888
Time = 0.22

PIMPLE: iteration 1
GAMG:  Solving for p, Initial residual = 0.487465, Final residual = 0.00888785, No Iterations 1
time step continuity errors : sum local = 2.81344e-17, global = -4.67132e-20, cumulative = -1.34363e-18
Pressure gradient source: uncorrected Ubar = 1, pressure gradient = 3.65271
GAMG:  Solving for p, Initial residual = 0.457847, Final residual = 0.00876535, No Iterations 1
time step continuity errors : sum local = 2.77596e-17, global = 6.22332e-20, cumulative = -1.28139e-18
Pressure gradient source: uncorrected Ubar = 1.00001, pressure gradient = 3.64294
GAMG:  Solving for p, Initial residual = 0.459503, Final residual = 8.818e-07, No Iterations 10
time step continuity errors : sum local = 2.78247e-17, global = 4.76825e-20, cumulative = -1.23371e-18
Pressure gradient source: uncorrected Ubar = 1.00001, pressure gradient = 3.63367
ExecutionTime = 3.68 s  ClockTime = 4 s

Courant Number mean: 0.400004 max: 0.490086
Time = 0.225

PIMPLE: iteration 1
GAMG:  Solving for p, Initial residual = 0.485383, Final residual = 0.00852478, No Iterations 1
time step continuity errors : sum local = 2.79998e-17, global = 8.74808e-20, cumulative = -1.14623e-18
Pressure gradient source: uncorrected Ubar = 1, pressure gradient = 3.62441
GAMG:  Solving for p, Initial residual = 0.462625, Final residual = 0.00860311, No Iterations 1
time step continuity errors : sum local = 2.77391e-17, global = -1.17057e-19, cumulative = -1.26329e-18
Pressure gradient source: uncorrected Ubar = 1.00001, pressure gradient = 3.615
GAMG:  Solving for p, Initial residual = 0.451711, Final residual = 4.00675e-07, No Iterations 15
time step continuity errors : sum local = 2.7918e-17, global = -7.71015e-20, cumulative = -1.34039e-18
Pressure gradient source: uncorrected Ubar = 1.00001, pressure gradient = 3.60605
ExecutionTime = 3.75 s  ClockTime = 4 s

Courant Number mean: 0.400003 max: 0.491282
Time = 0.23

PIMPLE: iteration 1
GAMG:  Solving for p, Initial residual = 0.484036, Final residual = 0.00886735, No Iterations 1
time step continuity errors : sum local = 2.8134e-17, global = -7.78319e-21, cumulative = -1.34817e-18
Pressure gradient source: uncorrected Ubar = 1, pressure gradient = 3.59713
GAMG:  Solving for p, Initial residual = 0.452222, Final residual = 0.00874818, No Iterations 1
time step continuity errors : sum local = 2.75245e-17, global = -9.30519e-20, cumulative = -1.44122e-18
Pressure gradient source: uncorrected Ubar = 1.00001, pressure gradient = 3.58805
GAMG:  Solving for p, Initial residual = 0.448707, Final residual = 6.15387e-07, No Iterations 14
time step continuity errors : sum local = 2.83352e-17, global = -2.04107e-19, cumulative = -1.64533e-18
Pressure gradient source: uncorrected Ubar = 1.00001, pressure gradient = 3.57941
ExecutionTime = 3.82 s  ClockTime = 4 s

Courant Number mean: 0.400003 max: 0.492468
Time = 0.235

PIMPLE: iteration 1
GAMG:  Solving for p, Initial residual = 0.48388, Final residual = 0.00909033, No Iterations 1
time step continuity errors : sum local = 2.8078e-17, global = 1.01405e-19, cumulative = -1.54393e-18
Pressure gradient source: uncorrected Ubar = 1, pressure gradient = 3.5708
GAMG:  Solving for p, Initial residual = 0.460004, Final residual = 0.00905787, No Iterations 1
time step continuity errors : sum local = 2.74875e-17, global = -4.29056e-20, cumulative = -1.58683e-18
Pressure gradient source: uncorrected Ubar = 1.00001, pressure gradient = 3.56204
GAMG:  Solving for p, Initial residual = 0.454745, Final residual = 4.08038e-07, No Iterations 14
time step continuity errors : sum local = 2.76709e-17, global = 1.70805e-20, cumulative = -1.56975e-18
Pressure gradient source: uncorrected Ubar = 1.00001, pressure gradient = 3.5537
ExecutionTime = 3.88 s  ClockTime = 4 s

Courant Number mean: 0.400003 max: 0.493644
Time = 0.24

PIMPLE: iteration 1
GAMG:  Solving for p, Initial residual = 0.483786, Final residual = 0.0115959, No Iterations 1
time step continuity errors : sum local = 2.78262e-17, global = -1.28983e-19, cumulative = -1.69873e-18
Pressure gradient source: uncorrected Ubar = 1, pressure gradient = 3.54539
GAMG:  Solving for p, Initial residual = 0.464706, Final residual = 0.00922931, No Iterations 1
time step continuity errors : sum local = 2.75642e-17, global = 3.90426e-21, cumulative = -1.69483e-18
Pressure gradient source: uncorrected Ubar = 1, pressure gradient = 3.53692
GAMG:  Solving for p, Initial residual = 0.465994, Final residual = 8.7903e-07, No Iterations 15
time step continuity errors : sum local = 2.75556e-17, global = 5.08481e-20, cumulative = -1.64398e-18
Pressure gradient source: uncorrected Ubar = 1.00001, pressure gradient = 3.52887
ExecutionTime = 3.95 s  ClockTime = 4 s

Courant Number mean: 0.400003 max: 0.49481
Time = 0.245

PIMPLE: iteration 1
GAMG:  Solving for p, Initial residual = 0.489002, Final residual = 0.00862694, No Iterations 1
time step continuity errors : sum local = 2.82661e-17, global = -1.61546e-19, cumulative = -1.80553e-18
Pressure gradient source: uncorrected Ubar = 1, pressure gradient = 3.52083
GAMG:  Solving for p, Initial residual = 0.469486, Final residual = 0.00933397, No Iterations 1
time step continuity errors : sum local = 2.75435e-17, global = 2.10916e-19, cumulative = -1.59461e-18
Pressure gradient source: uncorrected Ubar = 1, pressure gradient = 3.51265
GAMG:  Solving for p, Initial residual = 0.467825, Final residual = 3.31753e-07, No Iterations 17
time step continuity errors : sum local = 2.78887e-17, global = -2.03841e-20, cumulative = -1.615e-18
Pressure gradient source: uncorrected Ubar = 1.00001, pressure gradient = 3.50486
ExecutionTime = 4.02 s  ClockTime = 4 s

Courant Number mean: 0.400003 max: 0.495967
Time = 0.25

PIMPLE: iteration 1
GAMG:  Solving for p, Initial residual = 0.487862, Final residual = 0.00943075, No Iterations 1
time step continuity errors : sum local = 2.77852e-17, global = -6.0417e-20, cumulative = -1.67541e-18
Pressure gradient source: uncorrected Ubar = 1, pressure gradient = 3.49709
GAMG:  Solving for p, Initial residual = 0.462739, Final residual = 0.00881632, No Iterations 1
time step continuity errors : sum local = 2.73263e-17, global = 1.02071e-19, cumulative = -1.57334e-18
Pressure gradient source: uncorrected Ubar = 1, pressure gradient = 3.48917
GAMG:  Solving for p, Initial residual = 0.45546, Final residual = 8.75612e-07, No Iterations 12
time step continuity errors : sum local = 2.7603e-17, global = 5.97157e-20, cumulative = -1.51363e-18
Pressure gradient source: uncorrected Ubar = 1.00001, pressure gradient = 3.48164
ExecutionTime = 4.08 s  ClockTime = 4 s

Courant Number mean: 0.400003 max: 0.497115
Time = 0.255

PIMPLE: iteration 1
GAMG:  Solving for p, Initial residual = 0.486616, Final residual = 0.0113061, No Iterations 1
time step continuity errors : sum local = 2.76625e-17, global = 6.17066e-20, cumulative = -1.45192e-18
Pressure gradient source: uncorrected Ubar = 1, pressure gradient = 3.47412
GAMG:  Solving for p, Initial residual = 0.459595, Final residual = 0.00982913, No Iterations 1
time step continuity errors : sum local = 2.75893e-17, global = 8.32167e-20, cumulative = -1.3687e-18
Pressure gradient source: uncorrected Ubar = 1, pressure gradient = 3.46646
GAMG:  Solving for p, Initial residual = 0.455859, Final residual = 6.00593e-07, No Iterations 13
time step continuity errors : sum local = 2.76159e-17, global = -9.03467e-20, cumulative = -1.45905e-18
Pressure gradient source: uncorrected Ubar = 1.00001, pressure gradient = 3.45917
ExecutionTime = 4.15 s  ClockTime = 4 s

Courant Number mean: 0.400003 max: 0.498253
Time = 0.26

PIMPLE: iteration 1
GAMG:  Solving for p, Initial residual = 0.485154, Final residual = 0.0104362, No Iterations 1
time step continuity errors : sum local = 2.76805e-17, global = -1.05421e-19, cumulative = -1.56447e-18
Pressure gradient source: uncorrected Ubar = 1, pressure gradient = 3.45189
GAMG:  Solving for p, Initial residual = 0.460058, Final residual = 0.00840373, No Iterations 1
time step continuity errors : sum local = 2.76812e-17, global = 8.2168e-21, cumulative = -1.55625e-18
Pressure gradient source: uncorrected Ubar = 1, pressure gradient = 3.44447
GAMG:  Solving for p, Initial residual = 0.456833, Final residual = 6.56485e-07, No Iterations 13
time step continuity errors : sum local = 2.77159e-17, global = -5.07921e-20, cumulative = -1.60705e-18
Pressure gradient source: uncorrected Ubar = 1.00001, pressure gradient = 3.43741
ExecutionTime = 4.21 s  ClockTime = 4 s

Courant Number mean: 0.400003 max: 0.499383
Time = 0.265

PIMPLE: iteration 1
GAMG:  Solving for p, Initial residual = 0.487712, Final residual = 0.010016, No Iterations 1
time step continuity errors : sum local = 2.72078e-17, global = 5.79388e-20, cumulative = -1.54911e-18
Pressure gradient source: uncorrected Ubar = 1, pressure gradient = 3.43036
GAMG:  Solving for p, Initial residual = 0.462349, Final residual = 0.00899557, No Iterations 1
time step continuity errors : sum local = 2.74827e-17, global = 1.21205e-21, cumulative = -1.54789e-18
Pressure gradient source: uncorrected Ubar = 1, pressure gradient = 3.42317
GAMG:  Solving for p, Initial residual = 0.460388, Final residual = 7.25363e-07, No Iterations 11
time step continuity errors : sum local = 2.74525e-17, global = 2.44411e-20, cumulative = -1.52345e-18
Pressure gradient source: uncorrected Ubar = 1.00001, pressure gradient = 3.41633
ExecutionTime = 4.27 s  ClockTime = 4 s

Courant Number mean: 0.400003 max: 0.500503
Time = 0.27

PIMPLE: iteration 1
GAMG:  Solving for p, Initial residual = 0.480675, Final residual = 0.00997772, No Iterations 1
time step continuity errors : sum local = 2.7364e-17, global = 5.23995e-20, cumulative = -1.47105e-18
Pressure gradient source: uncorrected Ubar = 1, pressure gradient = 3.4095
GAMG:  Solving for p, Initial residual = 0.458769, Final residual = 0.00814542, No Iterations 1
time step continuity errors : sum local = 2.71932e-17, global = -3.05896e-20, cumulative = -1.50164e-18
Pressure gradient source: uncorrected Ubar = 1, pressure gradient = 3.40253
GAMG:  Solving for p, Initial residual = 0.461215, Final residual = 3.21523e-07, No Iterations 13
time step continuity errors : sum local = 2.78994e-17, global = -1.85822e-19, cumulative = -1.68747e-18
Pressure gradient source: uncorrected Ubar = 1.00001, pressure gradient = 3.39589
ExecutionTime = 4.34 s  ClockTime = 4 s

Courant Number mean: 0.400003 max: 0.501614
Time = 0.275

PIMPLE: iteration 1
GAMG:  Solving for p, Initial residual = 0.499279, Final residual = 0.00960411, No Iterations 1
time step continuity errors : sum local = 2.76441e-17, global = 4.76995e-20, cumulative = -1.63977e-18
Pressure gradient source: uncorrected Ubar = 1, pressure gradient = 3.38926
GAMG:  Solving for p, Initial residual = 0.46459, Final residual = 0.00830745, No Iterations 1
time step continuity errors : sum local = 2.74506e-17, global = 3.30485e-20, cumulative = -1.60672e-18
Pressure gradient source: uncorrected Ubar = 1, pressure gradient = 3.38251
GAMG:  Solving for p, Initial residual = 0.46366, Final residual = 8.93371e-07, No Iterations 13
time step continuity errors : sum local = 2.81744e-17, global = 1.42555e-19, cumulative = -1.46416e-18
Pressure gradient source: uncorrected Ubar = 1.00001, pressure gradient = 3.37607
ExecutionTime = 4.41 s  ClockTime = 4 s

Courant Number mean: 0.400002 max: 0.502716
Time = 0.28

PIMPLE: iteration 1
GAMG:  Solving for p, Initial residual = 0.490066, Final residual = 0.0099473, No Iterations 1
time step continuity errors : sum local = 2.811e-17, global = 1.37459e-19, cumulative = -1.3267e-18
Pressure gradient source: uncorrected Ubar = 1, pressure gradient = 3.36964
GAMG:  Solving for p, Initial residual = 0.466818, Final residual = 0.00753799, No Iterations 1
time step continuity errors : sum local = 2.74807e-17, global = 7.94991e-20, cumulative = -1.2472e-18
Pressure gradient source: uncorrected Ubar = 1, pressure gradient = 3.36308
GAMG:  Solving for p, Initial residual = 0.460583, Final residual = 5.08605e-07, No Iterations 11
time step continuity errors : sum local = 2.78205e-17, global = 5.82584e-20, cumulative = -1.18895e-18
Pressure gradient source: uncorrected Ubar = 1.00001, pressure gradient = 3.35684
ExecutionTime = 4.46 s  ClockTime = 4 s

Courant Number mean: 0.400002 max: 0.50381
Time = 0.285

PIMPLE: iteration 1
GAMG:  Solving for p, Initial residual = 0.490998, Final residual = 0.0100196, No Iterations 1
time step continuity errors : sum local = 2.78351e-17, global = -6.38867e-20, cumulative = -1.25283e-18
Pressure gradient source: uncorrected Ubar = 1, pressure gradient = 3.35059
GAMG:  Solving for p, Initial residual = 0.463688, Final residual = 0.00869026, No Iterations 1
time step continuity errors : sum local = 2.76782e-17, global = 1.22509e-20, cumulative = -1.24058e-18
Pressure gradient source: uncorrected Ubar = 1, pressure gradient = 3.34422
GAMG:  Solving for p, Initial residual = 0.455765, Final residual = 3.87195e-07, No Iterations 18
time step continuity errors : sum local = 2.7922e-17, global = 1.81672e-20, cumulative = -1.22242e-18
Pressure gradient source: uncorrected Ubar = 1.00001, pressure gradient = 3.33816
ExecutionTime = 4.54 s  ClockTime = 5 s

Courant Number mean: 0.400002 max: 0.504894
Time = 0.29

PIMPLE: iteration 1
GAMG:  Solving for p, Initial residual = 0.487939, Final residual = 0.00883044, No Iterations 1
time step continuity errors : sum local = 2.78535e-17, global = 1.10257e-20, cumulative = -1.21139e-18
Pressure gradient source: uncorrected Ubar = 1, pressure gradient = 3.3321
GAMG:  Solving for p, Initial residual = 0.45903, Final residual = 0.00911288, No Iterations 1
time step continuity errors : sum local = 2.75837e-17, global = -2.23621e-19, cumulative = -1.43501e-18
Pressure gradient source: uncorrected Ubar = 1, pressure gradient = 3.32591
GAMG:  Solving for p, Initial residual = 0.457636, Final residual = 4.73363e-07, No Iterations 12
time step continuity errors : sum local = 2.75848e-17, global = 5.7888e-20, cumulative = -1.37712e-18
Pressure gradient source: uncorrected Ubar = 1.00001, pressure gradient = 3.32002
ExecutionTime = 4.6 s  ClockTime = 5 s

Courant Number mean: 0.400002 max: 0.50597
Time = 0.295

PIMPLE: iteration 1
GAMG:  Solving for p, Initial residual = 0.489014, Final residual = 0.0100457, No Iterations 1
time step continuity errors : sum local = 2.75998e-17, global = 1.08128e-19, cumulative = -1.26899e-18
Pressure gradient source: uncorrected Ubar = 1, pressure gradient = 3.31413
GAMG:  Solving for p, Initial residual = 0.464303, Final residual = 0.00834419, No Iterations 1
time step continuity errors : sum local = 2.74682e-17, global = 1.26243e-20, cumulative = -1.25637e-18
Pressure gradient source: uncorrected Ubar = 1, pressure gradient = 3.30812
GAMG:  Solving for p, Initial residual = 0.45494, Final residual = 8.98161e-07, No Iterations 13
time step continuity errors : sum local = 2.75516e-17, global = -4.31924e-20, cumulative = -1.29956e-18
Pressure gradient source: uncorrected Ubar = 1.00001, pressure gradient = 3.30239
ExecutionTime = 4.66 s  ClockTime = 5 s

Courant Number mean: 0.400002 max: 0.507037
Time = 0.3

PIMPLE: iteration 1
GAMG:  Solving for p, Initial residual = 0.489625, Final residual = 0.0100213, No Iterations 1
time step continuity errors : sum local = 2.7398e-17, global = -2.87883e-20, cumulative = -1.32835e-18
Pressure gradient source: uncorrected Ubar = 1, pressure gradient = 3.29667
GAMG:  Solving for p, Initial residual = 0.462796, Final residual = 0.00720549, No Iterations 1
time step continuity errors : sum local = 2.73103e-17, global = 1.00755e-19, cumulative = -1.2276e-18
Pressure gradient source: uncorrected Ubar = 1, pressure gradient = 3.29082
GAMG:  Solving for p, Initial residual = 0.459584, Final residual = 7.42772e-07, No Iterations 10
time step continuity errors : sum local = 2.79745e-17, global = -9.5942e-20, cumulative = -1.32354e-18
Pressure gradient source: uncorrected Ubar = 1.00001, pressure gradient = 3.28526
ExecutionTime = 4.72 s  ClockTime = 5 s

Courant Number mean: 0.400002 max: 0.508096
Time = 0.305

PIMPLE: iteration 1
GAMG:  Solving for p, Initial residual = 0.489772, Final residual = 0.0101384, No Iterations 1
time step continuity errors : sum local = 2.81405e-17, global = -6.62435e-21, cumulative = -1.33016e-18
Pressure gradient source: uncorrected Ubar = 1, pressure gradient = 3.27969
GAMG:  Solving for p, Initial residual = 0.457979, Final residual = 0.0076784, No Iterations 1
time step continuity errors : sum local = 2.79344e-17, global = -6.31701e-20, cumulative = -1.39333e-18
Pressure gradient source: uncorrected Ubar = 1, pressure gradient = 3.27401
GAMG:  Solving for p, Initial residual = 0.464287, Final residual = 9.50642e-07, No Iterations 16
time step continuity errors : sum local = 2.72465e-17, global = 2.29819e-19, cumulative = -1.16351e-18
Pressure gradient source: uncorrected Ubar = 1, pressure gradient = 3.26859
ExecutionTime = 4.8 s  ClockTime = 5 s

Courant Number mean: 0.400002 max: 0.509146
Time = 0.31

PIMPLE: iteration 1
GAMG:  Solving for p, Initial residual = 0.488288, Final residual = 0.0106526, No Iterations 1
time step continuity errors : sum local = 2.71812e-17, global = -1.0838e-19, cumulative = -1.27189e-18
Pressure gradient source: uncorrected Ubar = 1, pressure gradient = 3.26317
GAMG:  Solving for p, Initial residual = 0.45249, Final residual = 0.00884805, No Iterations 1
time step continuity errors : sum local = 2.75279e-17, global = 7.50814e-20, cumulative = -1.19681e-18
Pressure gradient source: uncorrected Ubar = 1, pressure gradient = 3.25765
GAMG:  Solving for p, Initial residual = 0.4487, Final residual = 8.5448e-07, No Iterations 13
time step continuity errors : sum local = 2.73523e-17, global = -2.48451e-19, cumulative = -1.44526e-18
Pressure gradient source: uncorrected Ubar = 1, pressure gradient = 3.25238
ExecutionTime = 4.86 s  ClockTime = 5 s

Courant Number mean: 0.400002 max: 0.510187
Time = 0.315

PIMPLE: iteration 1
GAMG:  Solving for p, Initial residual = 0.479491, Final residual = 0.00936586, No Iterations 1
time step continuity errors : sum local = 2.73636e-17, global = -6.27995e-20, cumulative = -1.50806e-18
Pressure gradient source: uncorrected Ubar = 1, pressure gradient = 3.24711
GAMG:  Solving for p, Initial residual = 0.457474, Final residual = 0.00785743, No Iterations 1
time step continuity errors : sum local = 2.73697e-17, global = -7.77361e-20, cumulative = -1.5858e-18
Pressure gradient source: uncorrected Ubar = 1, pressure gradient = 3.24172
GAMG:  Solving for p, Initial residual = 0.457078, Final residual = 7.22547e-07, No Iterations 11
time step continuity errors : sum local = 2.74083e-17, global = 9.11235e-20, cumulative = -1.49468e-18
Pressure gradient source: uncorrected Ubar = 1, pressure gradient = 3.23659
ExecutionTime = 4.92 s  ClockTime = 5 s

Courant Number mean: 0.400002 max: 0.511219
Time = 0.32

PIMPLE: iteration 1
GAMG:  Solving for p, Initial residual = 0.488277, Final residual = 0.00882117, No Iterations 1
time step continuity errors : sum local = 2.72832e-17, global = 2.45151e-19, cumulative = -1.24952e-18
Pressure gradient source: uncorrected Ubar = 1, pressure gradient = 3.23146
GAMG:  Solving for p, Initial residual = 0.454939, Final residual = 0.00853602, No Iterations 1
time step continuity errors : sum local = 2.76127e-17, global = 1.74915e-19, cumulative = -1.07461e-18
Pressure gradient source: uncorrected Ubar = 1, pressure gradient = 3.22622
GAMG:  Solving for p, Initial residual = 0.453907, Final residual = 8.83214e-07, No Iterations 14
time step continuity errors : sum local = 2.77507e-17, global = 9.0115e-20, cumulative = -9.84494e-19
Pressure gradient source: uncorrected Ubar = 1, pressure gradient = 3.22123
ExecutionTime = 4.98 s  ClockTime = 5 s

Courant Number mean: 0.400002 max: 0.512243
Time = 0.325

PIMPLE: iteration 1
GAMG:  Solving for p, Initial residual = 0.491464, Final residual = 0.00893878, No Iterations 1
time step continuity errors : sum local = 2.75056e-17, global = 1.11859e-19, cumulative = -8.72635e-19
Pressure gradient source: uncorrected Ubar = 1, pressure gradient = 3.21623
GAMG:  Solving for p, Initial residual = 0.457719, Final residual = 0.00786364, No Iterations 1
time step continuity errors : sum local = 2.72269e-17, global = -6.98363e-20, cumulative = -9.42471e-19
Pressure gradient source: uncorrected Ubar = 1, pressure gradient = 3.21113
GAMG:  Solving for p, Initial residual = 0.453055, Final residual = 1.66312e-07, No Iterations 10
time step continuity errors : sum local = 2.7449e-17, global = -1.74256e-19, cumulative = -1.11673e-18
Pressure gradient source: uncorrected Ubar = 1, pressure gradient = 3.20626
ExecutionTime = 5.04 s  ClockTime = 5 s

Courant Number mean: 0.400002 max: 0.513258
Time = 0.33

PIMPLE: iteration 1
GAMG:  Solving for p, Initial residual = 0.493163, Final residual = 0.0108603, No Iterations 1
time step continuity errors : sum local = 2.71302e-17, global = 6.47565e-20, cumulative = -1.05197e-18
Pressure gradient source: uncorrected Ubar = 1, pressure gradient = 3.20139
GAMG:  Solving for p, Initial residual = 0.462896, Final residual = 0.0088473, No Iterations 1
time step continuity errors : sum local = 2.75844e-17, global = -5.2972e-20, cumulative = -1.10494e-18
Pressure gradient source: uncorrected Ubar = 1, pressure gradient = 3.19642
GAMG:  Solving for p, Initial residual = 0.456928, Final residual = 6.07182e-07, No Iterations 11
time step continuity errors : sum local = 2.76718e-17, global = -1.95115e-19, cumulative = -1.30006e-18
Pressure gradient source: uncorrected Ubar = 1, pressure gradient = 3.19168
ExecutionTime = 5.1 s  ClockTime = 5 s

Courant Number mean: 0.400002 max: 0.514264
Time = 0.335

PIMPLE: iteration 1
GAMG:  Solving for p, Initial residual = 0.485528, Final residual = 0.010522, No Iterations 1
time step continuity errors : sum local = 2.77879e-17, global = -1.93535e-19, cumulative = -1.49359e-18
Pressure gradient source: uncorrected Ubar = 1, pressure gradient = 3.18693
GAMG:  Solving for p, Initial residual = 0.458225, Final residual = 0.00908782, No Iterations 1
time step continuity errors : sum local = 2.76276e-17, global = 8.71643e-20, cumulative = -1.40643e-18
Pressure gradient source: uncorrected Ubar = 1, pressure gradient = 3.18208
GAMG:  Solving for p, Initial residual = 0.451034, Final residual = 8.42153e-07, No Iterations 9
time step continuity errors : sum local = 2.77373e-17, global = 3.25923e-20, cumulative = -1.37384e-18
Pressure gradient source: uncorrected Ubar = 1, pressure gradient = 3.17746
ExecutionTime = 5.15 s  ClockTime = 5 s

Courant Number mean: 0.400002 max: 0.515262
Time = 0.34

PIMPLE: iteration 1
GAMG:  Solving for p, Initial residual = 0.483434, Final residual = 0.00970257, No Iterations 1
time step continuity errors : sum local = 2.71431e-17, global = -4.4564e-20, cumulative = -1.4184e-18
Pressure gradient source: uncorrected Ubar = 1, pressure gradient = 3.17283
GAMG:  Solving for p, Initial residual = 0.455164, Final residual = 0.00770767, No Iterations 1
time step continuity errors : sum local = 2.67918e-17, global = -2.65904e-19, cumulative = -1.6843e-18
Pressure gradient source: uncorrected Ubar = 1, pressure gradient = 3.16811
GAMG:  Solving for p, Initial residual = 0.447754, Final residual = 9.26497e-07, No Iterations 11
time step continuity errors : sum local = 2.7184e-17, global = 9.36148e-20, cumulative = -1.59069e-18
Pressure gradient source: uncorrected Ubar = 1, pressure gradient = 3.1636
ExecutionTime = 5.21 s  ClockTime = 5 s

Courant Number mean: 0.400002 max: 0.516251
Time = 0.345

PIMPLE: iteration 1
GAMG:  Solving for p, Initial residual = 0.479066, Final residual = 0.0090843, No Iterations 1
time step continuity errors : sum local = 2.69983e-17, global = 7.64163e-20, cumulative = -1.51427e-18
Pressure gradient source: uncorrected Ubar = 1, pressure gradient = 3.15909
GAMG:  Solving for p, Initial residual = 0.453687, Final residual = 0.00882096, No Iterations 1
time step continuity errors : sum local = 2.68573e-17, global = -5.10109e-20, cumulative = -1.56528e-18
Pressure gradient source: uncorrected Ubar = 1, pressure gradient = 3.15448
GAMG:  Solving for p, Initial residual = 0.444912, Final residual = 5.10807e-07, No Iterations 10
time step continuity errors : sum local = 2.74272e-17, global = 1.30384e-19, cumulative = -1.4349e-18
Pressure gradient source: uncorrected Ubar = 1, pressure gradient = 3.15008
ExecutionTime = 5.27 s  ClockTime = 5 s

Courant Number mean: 0.400002 max: 0.517232
Time = 0.35

PIMPLE: iteration 1
GAMG:  Solving for p, Initial residual = 0.479937, Final residual = 0.00875718, No Iterations 1
time step continuity errors : sum local = 2.75305e-17, global = 1.79913e-20, cumulative = -1.41691e-18
Pressure gradient source: uncorrected Ubar = 1, pressure gradient = 3.14568
GAMG:  Solving for p, Initial residual = 0.451058, Final residual = 0.00800925, No Iterations 1
time step continuity errors : sum local = 2.69865e-17, global = 8.38714e-20, cumulative = -1.33304e-18
Pressure gradient source: uncorrected Ubar = 1, pressure gradient = 3.14119
GAMG:  Solving for p, Initial residual = 0.454595, Final residual = 7.75652e-07, No Iterations 18
time step continuity errors : sum local = 2.74884e-17, global = 6.75319e-20, cumulative = -1.2655e-18
Pressure gradient source: uncorrected Ubar = 1, pressure gradient = 3.1369
ExecutionTime = 5.34 s  ClockTime = 5 s

Courant Number mean: 0.400002 max: 0.518203
Time = 0.355

PIMPLE: iteration 1
GAMG:  Solving for p, Initial residual = 0.491251, Final residual = 0.0110601, No Iterations 1
time step continuity errors : sum local = 2.74215e-17, global = -1.43107e-19, cumulative = -1.40861e-18
Pressure gradient source: uncorrected Ubar = 1, pressure gradient = 3.1326
GAMG:  Solving for p, Initial residual = 0.46223, Final residual = 0.00854138, No Iterations 1
time step continuity errors : sum local = 2.71406e-17, global = -8.0801e-20, cumulative = -1.48941e-18
Pressure gradient source: uncorrected Ubar = 1, pressure gradient = 3.12821
GAMG:  Solving for p, Initial residual = 0.46251, Final residual = 8.51378e-07, No Iterations 11
time step continuity errors : sum local = 2.72152e-17, global = 9.12496e-20, cumulative = -1.39816e-18
Pressure gradient source: uncorrected Ubar = 1, pressure gradient = 3.12403
ExecutionTime = 5.4 s  ClockTime = 5 s

Courant Number mean: 0.400002 max: 0.519167
Time = 0.36

PIMPLE: iteration 1
GAMG:  Solving for p, Initial residual = 0.483177, Final residual = 0.00805748, No Iterations 1
time step continuity errors : sum local = 2.69311e-17, global = -7.12339e-20, cumulative = -1.4694e-18
Pressure gradient source: uncorrected Ubar = 1, pressure gradient = 3.11983
GAMG:  Solving for p, Initial residual = 0.456493, Final residual = 0.00872889, No Iterations 1
time step continuity errors : sum local = 2.67216e-17, global = 9.71066e-20, cumulative = -1.37229e-18
Pressure gradient source: uncorrected Ubar = 1, pressure gradient = 3.11555
GAMG:  Solving for p, Initial residual = 0.453974, Final residual = 2.44184e-07, No Iterations 11
time step continuity errors : sum local = 2.71005e-17, global = -2.33164e-20, cumulative = -1.39561e-18
Pressure gradient source: uncorrected Ubar = 1, pressure gradient = 3.11146
ExecutionTime = 5.46 s  ClockTime = 5 s

Courant Number mean: 0.400002 max: 0.520121
Time = 0.365

PIMPLE: iteration 1
GAMG:  Solving for p, Initial residual = 0.493386, Final residual = 0.0108495, No Iterations 1
time step continuity errors : sum local = 2.72509e-17, global = -4.62017e-20, cumulative = -1.44181e-18
Pressure gradient source: uncorrected Ubar = 1, pressure gradient = 3.10737
GAMG:  Solving for p, Initial residual = 0.459303, Final residual = 0.00789545, No Iterations 1
time step continuity errors : sum local = 2.67423e-17, global = -1.0851e-19, cumulative = -1.55032e-18
Pressure gradient source: uncorrected Ubar = 1, pressure gradient = 3.10319
GAMG:  Solving for p, Initial residual = 0.455995, Final residual = 5.74454e-07, No Iterations 11
time step continuity errors : sum local = 2.7114e-17, global = -2.19813e-20, cumulative = -1.5723e-18
Pressure gradient source: uncorrected Ubar = 1, pressure gradient = 3.09919
ExecutionTime = 5.52 s  ClockTime = 5 s

Courant Number mean: 0.400002 max: 0.521067
Time = 0.37

PIMPLE: iteration 1
GAMG:  Solving for p, Initial residual = 0.488575, Final residual = 0.0104417, No Iterations 1
time step continuity errors : sum local = 2.72227e-17, global = 2.11703e-19, cumulative = -1.3606e-18
Pressure gradient source: uncorrected Ubar = 1, pressure gradient = 3.0952
GAMG:  Solving for p, Initial residual = 0.46058, Final residual = 0.00875323, No Iterations 1
time step continuity errors : sum local = 2.72752e-17, global = -9.21194e-20, cumulative = -1.45272e-18
Pressure gradient source: uncorrected Ubar = 1, pressure gradient = 3.09111
GAMG:  Solving for p, Initial residual = 0.451994, Final residual = 4.2317e-07, No Iterations 12
time step continuity errors : sum local = 2.72144e-17, global = 2.31513e-20, cumulative = -1.42956e-18
Pressure gradient source: uncorrected Ubar = 1, pressure gradient = 3.08721
ExecutionTime = 5.58 s  ClockTime = 6 s

Courant Number mean: 0.400001 max: 0.522005
Time = 0.375

PIMPLE: iteration 1
GAMG:  Solving for p, Initial residual = 0.48032, Final residual = 0.0108149, No Iterations 1
time step continuity errors : sum local = 2.73074e-17, global = -2.56641e-21, cumulative = -1.43213e-18
Pressure gradient source: uncorrected Ubar = 1, pressure gradient = 3.08331
GAMG:  Solving for p, Initial residual = 0.455134, Final residual = 0.00882362, No Iterations 1
time step continuity errors : sum local = 2.73065e-17, global = -1.92111e-20, cumulative = -1.45134e-18
Pressure gradient source: uncorrected Ubar = 1, pressure gradient = 3.07932
GAMG:  Solving for p, Initial residual = 0.454062, Final residual = 5.46937e-07, No Iterations 11
time step continuity errors : sum local = 2.70135e-17, global = -1.57719e-19, cumulative = -1.60906e-18
Pressure gradient source: uncorrected Ubar = 1, pressure gradient = 3.07551
ExecutionTime = 5.64 s  ClockTime = 6 s

Courant Number mean: 0.400001 max: 0.522933
Time = 0.38

PIMPLE: iteration 1
GAMG:  Solving for p, Initial residual = 0.480501, Final residual = 0.009136, No Iterations 1
time step continuity errors : sum local = 2.70916e-17, global = 3.76171e-20, cumulative = -1.57144e-18
Pressure gradient source: uncorrected Ubar = 1, pressure gradient = 3.07169
GAMG:  Solving for p, Initial residual = 0.455768, Final residual = 0.00861249, No Iterations 1
time step continuity errors : sum local = 2.726e-17, global = 1.53628e-19, cumulative = -1.41782e-18
Pressure gradient source: uncorrected Ubar = 1, pressure gradient = 3.06779
GAMG:  Solving for p, Initial residual = 0.45309, Final residual = 7.12063e-07, No Iterations 9
time step continuity errors : sum local = 2.75847e-17, global = -4.75452e-20, cumulative = -1.46536e-18
Pressure gradient source: uncorrected Ubar = 1, pressure gradient = 3.06407
ExecutionTime = 5.69 s  ClockTime = 6 s

Courant Number mean: 0.400001 max: 0.523853
Time = 0.385

PIMPLE: iteration 1
GAMG:  Solving for p, Initial residual = 0.485132, Final residual = 0.00860432, No Iterations 1
time step continuity errors : sum local = 2.75116e-17, global = -1.22641e-19, cumulative = -1.588e-18
Pressure gradient source: uncorrected Ubar = 1, pressure gradient = 3.06034
GAMG:  Solving for p, Initial residual = 0.46145, Final residual = 0.00841928, No Iterations 1
time step continuity errors : sum local = 2.72395e-17, global = -1.22684e-19, cumulative = -1.71069e-18
Pressure gradient source: uncorrected Ubar = 1, pressure gradient = 3.05652
GAMG:  Solving for p, Initial residual = 0.458239, Final residual = 7.14836e-07, No Iterations 10
time step continuity errors : sum local = 2.76038e-17, global = -1.44646e-19, cumulative = -1.85533e-18
Pressure gradient source: uncorrected Ubar = 1, pressure gradient = 3.05288
ExecutionTime = 5.75 s  ClockTime = 6 s

Courant Number mean: 0.400001 max: 0.524765
Time = 0.39

PIMPLE: iteration 1
GAMG:  Solving for p, Initial residual = 0.492905, Final residual = 0.00946627, No Iterations 1
time step continuity errors : sum local = 2.7432e-17, global = -7.25499e-20, cumulative = -1.92788e-18
Pressure gradient source: uncorrected Ubar = 1, pressure gradient = 3.04924
GAMG:  Solving for p, Initial residual = 0.459833, Final residual = 0.00787447, No Iterations 1
time step continuity errors : sum local = 2.69068e-17, global = -7.6224e-20, cumulative = -2.00411e-18
Pressure gradient source: uncorrected Ubar = 1, pressure gradient = 3.04551
GAMG:  Solving for p, Initial residual = 0.45071, Final residual = 9.39274e-07, No Iterations 13
time step continuity errors : sum local = 2.70123e-17, global = -8.64772e-20, cumulative = -2.09058e-18
Pressure gradient source: uncorrected Ubar = 1, pressure gradient = 3.04195
ExecutionTime = 5.81 s  ClockTime = 6 s

Courant Number mean: 0.400001 max: 0.525668
Time = 0.395

PIMPLE: iteration 1
GAMG:  Solving for p, Initial residual = 0.485285, Final residual = 0.0111269, No Iterations 1
time step continuity errors : sum local = 2.71031e-17, global = -1.7941e-19, cumulative = -2.26999e-18
Pressure gradient source: uncorrected Ubar = 1, pressure gradient = 3.03839
GAMG:  Solving for p, Initial residual = 0.452751, Final residual = 0.00773926, No Iterations 1
time step continuity errors : sum local = 2.70572e-17, global = 5.95381e-20, cumulative = -2.21045e-18
Pressure gradient source: uncorrected Ubar = 1, pressure gradient = 3.03474
GAMG:  Solving for p, Initial residual = 0.453797, Final residual = 7.12866e-07, No Iterations 15
time step continuity errors : sum local = 2.73055e-17, global = 1.13741e-19, cumulative = -2.09671e-18
Pressure gradient source: uncorrected Ubar = 1, pressure gradient = 3.03126
ExecutionTime = 5.88 s  ClockTime = 6 s

Courant Number mean: 0.400001 max: 0.526562
Time = 0.4

PIMPLE: iteration 1
GAMG:  Solving for p, Initial residual = 0.488874, Final residual = 0.0114576, No Iterations 1
time step continuity errors : sum local = 2.72265e-17, global = -1.00404e-19, cumulative = -2.19712e-18
Pressure gradient source: uncorrected Ubar = 1, pressure gradient = 3.02777
GAMG:  Solving for p, Initial residual = 0.461207, Final residual = 0.00882478, No Iterations 1
time step continuity errors : sum local = 2.68052e-17, global = 1.22945e-19, cumulative = -2.07417e-18
Pressure gradient source: uncorrected Ubar = 1, pressure gradient = 3.02421
GAMG:  Solving for p, Initial residual = 0.455338, Final residual = 6.65921e-07, No Iterations 14
time step continuity errors : sum local = 2.75673e-17, global = -2.78278e-20, cumulative = -2.102e-18
Pressure gradient source: uncorrected Ubar = 1, pressure gradient = 3.0208
ExecutionTime = 5.95 s  ClockTime = 6 s

Courant Number mean: 0.400001 max: 0.527448
Time = 0.405

PIMPLE: iteration 1
GAMG:  Solving for p, Initial residual = 0.497775, Final residual = 0.00860202, No Iterations 1
time step continuity errors : sum local = 2.73526e-17, global = -2.69316e-20, cumulative = -2.12893e-18
[...]
Pressure gradient source: uncorrected Ubar = 1, pressure gradient = 2.39925
ExecutionTime = 135 s  ClockTime = 135 s

Courant Number mean: 0.4 max: 0.599813
Time = 9.9

PIMPLE: iteration 1
GAMG:  Solving for p, Initial residual = 0.480666, Final residual = 0.0106309, No Iterations 1
time step continuity errors : sum local = 2.63751e-17, global = 2.36472e-20, cumulative = -7.59095e-17
Pressure gradient source: uncorrected Ubar = 1, pressure gradient = 2.39925
GAMG:  Solving for p, Initial residual = 0.461189, Final residual = 0.00945182, No Iterations 1
time step continuity errors : sum local = 2.55911e-17, global = -3.21162e-19, cumulative = -7.62307e-17
Pressure gradient source: uncorrected Ubar = 1, pressure gradient = 2.39925
GAMG:  Solving for p, Initial residual = 0.452554, Final residual = 6.42611e-07, No Iterations 13
time step continuity errors : sum local = 2.57619e-17, global = 7.84357e-20, cumulative = -7.61523e-17
Pressure gradient source: uncorrected Ubar = 1, pressure gradient = 2.39925
ExecutionTime = 135.07 s  ClockTime = 135 s

Courant Number mean: 0.4 max: 0.599813
Time = 9.905

PIMPLE: iteration 1
GAMG:  Solving for p, Initial residual = 0.474644, Final residual = 0.00851158, No Iterations 1
time step continuity errors : sum local = 2.59553e-17, global = -3.86148e-21, cumulative = -7.61561e-17
Pressure gradient source: uncorrected Ubar = 1, pressure gradient = 2.39925
GAMG:  Solving for p, Initial residual = 0.459675, Final residual = 0.00885286, No Iterations 1
time step continuity errors : sum local = 2.56317e-17, global = 6.27493e-20, cumulative = -7.60934e-17
Pressure gradient source: uncorrected Ubar = 1, pressure gradient = 2.39925
GAMG:  Solving for p, Initial residual = 0.449088, Final residual = 8.10253e-07, No Iterations 13
time step continuity errors : sum local = 2.62528e-17, global = -1.42283e-19, cumulative = -7.62357e-17
Pressure gradient source: uncorrected Ubar = 1, pressure gradient = 2.39925
ExecutionTime = 135.13 s  ClockTime = 135 s

Courant Number mean: 0.4 max: 0.599813
Time = 9.91

PIMPLE: iteration 1
GAMG:  Solving for p, Initial residual = 0.500851, Final residual = 0.00871148, No Iterations 1
time step continuity errors : sum local = 2.58133e-17, global = -9.20497e-20, cumulative = -7.63277e-17
Pressure gradient source: uncorrected Ubar = 1, pressure gradient = 2.39925
GAMG:  Solving for p, Initial residual = 0.452951, Final residual = 0.00722229, No Iterations 1
time step continuity errors : sum local = 2.54638e-17, global = -5.99272e-20, cumulative = -7.63876e-17
Pressure gradient source: uncorrected Ubar = 1, pressure gradient = 2.39925
GAMG:  Solving for p, Initial residual = 0.45507, Final residual = 5.94731e-07, No Iterations 17
time step continuity errors : sum local = 2.58823e-17, global = -2.26076e-19, cumulative = -7.66137e-17
Pressure gradient source: uncorrected Ubar = 1, pressure gradient = 2.39925
ExecutionTime = 135.21 s  ClockTime = 135 s

Courant Number mean: 0.4 max: 0.599813
Time = 9.915

PIMPLE: iteration 1
GAMG:  Solving for p, Initial residual = 0.482898, Final residual = 0.00872367, No Iterations 1
time step continuity errors : sum local = 2.55995e-17, global = -3.69249e-21, cumulative = -7.66174e-17
Pressure gradient source: uncorrected Ubar = 1, pressure gradient = 2.39925
GAMG:  Solving for p, Initial residual = 0.452264, Final residual = 0.0076504, No Iterations 1
time step continuity errors : sum local = 2.546e-17, global = 2.31547e-20, cumulative = -7.65942e-17
Pressure gradient source: uncorrected Ubar = 1, pressure gradient = 2.39925
GAMG:  Solving for p, Initial residual = 0.449347, Final residual = 5.38721e-07, No Iterations 11
time step continuity errors : sum local = 2.57591e-17, global = 1.06741e-20, cumulative = -7.65836e-17
Pressure gradient source: uncorrected Ubar = 1, pressure gradient = 2.39925
ExecutionTime = 135.26 s  ClockTime = 135 s

Courant Number mean: 0.4 max: 0.599813
Time = 9.92

PIMPLE: iteration 1
GAMG:  Solving for p, Initial residual = 0.467717, Final residual = 0.00992911, No Iterations 1
time step continuity errors : sum local = 2.53107e-17, global = -1.74697e-19, cumulative = -7.67583e-17
Pressure gradient source: uncorrected Ubar = 1, pressure gradient = 2.39925
GAMG:  Solving for p, Initial residual = 0.444057, Final residual = 0.00801685, No Iterations 1
time step continuity errors : sum local = 2.56992e-17, global = -1.70056e-19, cumulative = -7.69283e-17
Pressure gradient source: uncorrected Ubar = 1, pressure gradient = 2.39925
GAMG:  Solving for p, Initial residual = 0.45015, Final residual = 8.052e-07, No Iterations 13
time step continuity errors : sum local = 2.58424e-17, global = -8.38595e-20, cumulative = -7.70122e-17
Pressure gradient source: uncorrected Ubar = 1, pressure gradient = 2.39925
ExecutionTime = 135.32 s  ClockTime = 135 s

Courant Number mean: 0.4 max: 0.599813
Time = 9.925

PIMPLE: iteration 1
GAMG:  Solving for p, Initial residual = 0.473139, Final residual = 0.010727, No Iterations 1
time step continuity errors : sum local = 2.55566e-17, global = -1.85312e-20, cumulative = -7.70307e-17
Pressure gradient source: uncorrected Ubar = 1, pressure gradient = 2.39925
GAMG:  Solving for p, Initial residual = 0.454656, Final residual = 0.0082637, No Iterations 1
time step continuity errors : sum local = 2.56798e-17, global = 2.05404e-19, cumulative = -7.68253e-17
Pressure gradient source: uncorrected Ubar = 1, pressure gradient = 2.39925
GAMG:  Solving for p, Initial residual = 0.451599, Final residual = 9.91881e-07, No Iterations 12
time step continuity errors : sum local = 2.59893e-17, global = 1.29717e-19, cumulative = -7.66956e-17
Pressure gradient source: uncorrected Ubar = 1, pressure gradient = 2.39925
ExecutionTime = 135.39 s  ClockTime = 135 s

Courant Number mean: 0.4 max: 0.599813
Time = 9.93

PIMPLE: iteration 1
GAMG:  Solving for p, Initial residual = 0.482169, Final residual = 0.00923271, No Iterations 1
time step continuity errors : sum local = 2.54693e-17, global = -3.46317e-20, cumulative = -7.67302e-17
Pressure gradient source: uncorrected Ubar = 1, pressure gradient = 2.39925
GAMG:  Solving for p, Initial residual = 0.444941, Final residual = 0.00816148, No Iterations 1
time step continuity errors : sum local = 2.55454e-17, global = 5.70603e-20, cumulative = -7.66732e-17
Pressure gradient source: uncorrected Ubar = 1, pressure gradient = 2.39925
GAMG:  Solving for p, Initial residual = 0.446686, Final residual = 8.09715e-07, No Iterations 14
time step continuity errors : sum local = 2.59338e-17, global = -3.81011e-20, cumulative = -7.67113e-17
Pressure gradient source: uncorrected Ubar = 1, pressure gradient = 2.39925
ExecutionTime = 135.45 s  ClockTime = 135 s

Courant Number mean: 0.4 max: 0.599813
Time = 9.935

PIMPLE: iteration 1
GAMG:  Solving for p, Initial residual = 0.472233, Final residual = 0.0089792, No Iterations 1
time step continuity errors : sum local = 2.58075e-17, global = 1.2768e-19, cumulative = -7.65836e-17
Pressure gradient source: uncorrected Ubar = 1, pressure gradient = 2.39925
GAMG:  Solving for p, Initial residual = 0.447856, Final residual = 0.00757503, No Iterations 1
time step continuity errors : sum local = 2.55317e-17, global = 1.57464e-19, cumulative = -7.64261e-17
Pressure gradient source: uncorrected Ubar = 1, pressure gradient = 2.39925
GAMG:  Solving for p, Initial residual = 0.448748, Final residual = 2.89241e-07, No Iterations 15
time step continuity errors : sum local = 2.56247e-17, global = 1.71616e-19, cumulative = -7.62545e-17
Pressure gradient source: uncorrected Ubar = 1, pressure gradient = 2.39925
ExecutionTime = 135.52 s  ClockTime = 136 s

Courant Number mean: 0.4 max: 0.599813
Time = 9.94

PIMPLE: iteration 1
GAMG:  Solving for p, Initial residual = 0.468269, Final residual = 0.0087943, No Iterations 1
time step continuity errors : sum local = 2.56894e-17, global = -1.87711e-20, cumulative = -7.62733e-17
Pressure gradient source: uncorrected Ubar = 1, pressure gradient = 2.39925
GAMG:  Solving for p, Initial residual = 0.444239, Final residual = 0.00771369, No Iterations 1
time step continuity errors : sum local = 2.55107e-17, global = 9.00565e-20, cumulative = -7.61832e-17
Pressure gradient source: uncorrected Ubar = 1, pressure gradient = 2.39925
GAMG:  Solving for p, Initial residual = 0.446546, Final residual = 4.77061e-07, No Iterations 12
time step continuity errors : sum local = 2.61146e-17, global = 2.18069e-21, cumulative = -7.6181e-17
Pressure gradient source: uncorrected Ubar = 1, pressure gradient = 2.39925
ExecutionTime = 135.58 s  ClockTime = 136 s

Courant Number mean: 0.4 max: 0.599813
Time = 9.945

PIMPLE: iteration 1
GAMG:  Solving for p, Initial residual = 0.466359, Final residual = 0.00931734, No Iterations 1
time step continuity errors : sum local = 2.57748e-17, global = 1.05216e-19, cumulative = -7.60758e-17
Pressure gradient source: uncorrected Ubar = 1, pressure gradient = 2.39925
GAMG:  Solving for p, Initial residual = 0.446498, Final residual = 0.00838389, No Iterations 1
time step continuity errors : sum local = 2.56163e-17, global = 1.54737e-20, cumulative = -7.60603e-17
Pressure gradient source: uncorrected Ubar = 1, pressure gradient = 2.39925
GAMG:  Solving for p, Initial residual = 0.446189, Final residual = 7.20863e-07, No Iterations 15
time step continuity errors : sum local = 2.56515e-17, global = 2.98535e-20, cumulative = -7.60305e-17
Pressure gradient source: uncorrected Ubar = 1, pressure gradient = 2.39925
ExecutionTime = 135.65 s  ClockTime = 136 s

Courant Number mean: 0.4 max: 0.599813
Time = 9.95

PIMPLE: iteration 1
GAMG:  Solving for p, Initial residual = 0.466258, Final residual = 0.00909299, No Iterations 1
time step continuity errors : sum local = 2.57406e-17, global = -4.01321e-20, cumulative = -7.60706e-17
Pressure gradient source: uncorrected Ubar = 1, pressure gradient = 2.39925
GAMG:  Solving for p, Initial residual = 0.449304, Final residual = 0.00933024, No Iterations 1
time step continuity errors : sum local = 2.55995e-17, global = -2.39566e-19, cumulative = -7.63102e-17
Pressure gradient source: uncorrected Ubar = 1, pressure gradient = 2.39925
GAMG:  Solving for p, Initial residual = 0.443139, Final residual = 6.77887e-07, No Iterations 14
time step continuity errors : sum local = 2.56587e-17, global = 2.77009e-19, cumulative = -7.60332e-17
Pressure gradient source: uncorrected Ubar = 1, pressure gradient = 2.39925
ExecutionTime = 135.71 s  ClockTime = 136 s

Courant Number mean: 0.4 max: 0.599813
Time = 9.955

PIMPLE: iteration 1
GAMG:  Solving for p, Initial residual = 0.475502, Final residual = 0.0115833, No Iterations 1
time step continuity errors : sum local = 2.54733e-17, global = 2.44051e-20, cumulative = -7.60088e-17
Pressure gradient source: uncorrected Ubar = 1, pressure gradient = 2.39925
GAMG:  Solving for p, Initial residual = 0.454021, Final residual = 0.00772083, No Iterations 1
time step continuity errors : sum local = 2.57429e-17, global = -9.51077e-20, cumulative = -7.61039e-17
Pressure gradient source: uncorrected Ubar = 1, pressure gradient = 2.39925
GAMG:  Solving for p, Initial residual = 0.453505, Final residual = 6.9998e-07, No Iterations 10
time step continuity errors : sum local = 2.57315e-17, global = 1.58461e-19, cumulative = -7.59454e-17
Pressure gradient source: uncorrected Ubar = 1, pressure gradient = 2.39925
ExecutionTime = 135.77 s  ClockTime = 136 s

Courant Number mean: 0.4 max: 0.599813
Time = 9.96

PIMPLE: iteration 1
GAMG:  Solving for p, Initial residual = 0.471866, Final residual = 0.0101818, No Iterations 1
time step continuity errors : sum local = 2.55935e-17, global = 1.03825e-19, cumulative = -7.58416e-17
Pressure gradient source: uncorrected Ubar = 1, pressure gradient = 2.39925
GAMG:  Solving for p, Initial residual = 0.450929, Final residual = 0.00838058, No Iterations 1
time step continuity errors : sum local = 2.56216e-17, global = 2.1764e-20, cumulative = -7.58198e-17
Pressure gradient source: uncorrected Ubar = 1, pressure gradient = 2.39925
GAMG:  Solving for p, Initial residual = 0.454974, Final residual = 8.95479e-07, No Iterations 10
time step continuity errors : sum local = 2.57684e-17, global = 2.01294e-19, cumulative = -7.56185e-17
Pressure gradient source: uncorrected Ubar = 1, pressure gradient = 2.39925
ExecutionTime = 135.82 s  ClockTime = 136 s

Courant Number mean: 0.4 max: 0.599813
Time = 9.965

PIMPLE: iteration 1
GAMG:  Solving for p, Initial residual = 0.497141, Final residual = 0.0107408, No Iterations 1
time step continuity errors : sum local = 2.55852e-17, global = 1.38084e-20, cumulative = -7.56047e-17
Pressure gradient source: uncorrected Ubar = 1, pressure gradient = 2.39925
GAMG:  Solving for p, Initial residual = 0.444858, Final residual = 0.00859833, No Iterations 1
time step continuity errors : sum local = 2.55919e-17, global = 2.3461e-19, cumulative = -7.53701e-17
Pressure gradient source: uncorrected Ubar = 1, pressure gradient = 2.39925
GAMG:  Solving for p, Initial residual = 0.446534, Final residual = 6.919e-07, No Iterations 14
time step continuity errors : sum local = 2.60359e-17, global = -3.69928e-20, cumulative = -7.54071e-17
Pressure gradient source: uncorrected Ubar = 1, pressure gradient = 2.39925
ExecutionTime = 135.89 s  ClockTime = 136 s

Courant Number mean: 0.4 max: 0.599813
Time = 9.97

PIMPLE: iteration 1
GAMG:  Solving for p, Initial residual = 0.490448, Final residual = 0.00926754, No Iterations 1
time step continuity errors : sum local = 2.59493e-17, global = 2.7024e-19, cumulative = -7.51369e-17
Pressure gradient source: uncorrected Ubar = 1, pressure gradient = 2.39925
GAMG:  Solving for p, Initial residual = 0.456234, Final residual = 0.00858294, No Iterations 1
time step continuity errors : sum local = 2.60064e-17, global = 1.13181e-19, cumulative = -7.50237e-17
Pressure gradient source: uncorrected Ubar = 1, pressure gradient = 2.39925
GAMG:  Solving for p, Initial residual = 0.454856, Final residual = 4.98427e-07, No Iterations 13
time step continuity errors : sum local = 2.61538e-17, global = -4.8598e-20, cumulative = -7.50723e-17
Pressure gradient source: uncorrected Ubar = 1, pressure gradient = 2.39925
ExecutionTime = 135.95 s  ClockTime = 136 s

Courant Number mean: 0.4 max: 0.599813
Time = 9.975

PIMPLE: iteration 1
GAMG:  Solving for p, Initial residual = 0.482926, Final residual = 0.0100675, No Iterations 1
time step continuity errors : sum local = 2.59458e-17, global = 1.58709e-19, cumulative = -7.49136e-17
Pressure gradient source: uncorrected Ubar = 1, pressure gradient = 2.39925
GAMG:  Solving for p, Initial residual = 0.458224, Final residual = 0.00869184, No Iterations 1
time step continuity errors : sum local = 2.53961e-17, global = -8.18178e-20, cumulative = -7.49954e-17
Pressure gradient source: uncorrected Ubar = 1, pressure gradient = 2.39925
GAMG:  Solving for p, Initial residual = 0.45116, Final residual = 8.4423e-07, No Iterations 17
time step continuity errors : sum local = 2.61623e-17, global = -2.00628e-19, cumulative = -7.5196e-17
Pressure gradient source: uncorrected Ubar = 1, pressure gradient = 2.39925
ExecutionTime = 136.03 s  ClockTime = 136 s

Courant Number mean: 0.4 max: 0.599813
Time = 9.98

PIMPLE: iteration 1
GAMG:  Solving for p, Initial residual = 0.483255, Final residual = 0.00961409, No Iterations 1
time step continuity errors : sum local = 2.60553e-17, global = -1.99875e-20, cumulative = -7.5216e-17
Pressure gradient source: uncorrected Ubar = 1, pressure gradient = 2.39925
GAMG:  Solving for p, Initial residual = 0.462933, Final residual = 0.00858803, No Iterations 1
time step continuity errors : sum local = 2.56354e-17, global = 1.09744e-19, cumulative = -7.51063e-17
Pressure gradient source: uncorrected Ubar = 1, pressure gradient = 2.39925
GAMG:  Solving for p, Initial residual = 0.4546, Final residual = 9.38772e-07, No Iterations 11
time step continuity errors : sum local = 2.62343e-17, global = -1.0666e-19, cumulative = -7.52129e-17
Pressure gradient source: uncorrected Ubar = 1, pressure gradient = 2.39925
ExecutionTime = 136.09 s  ClockTime = 136 s

Courant Number mean: 0.4 max: 0.599813
Time = 9.985

PIMPLE: iteration 1
GAMG:  Solving for p, Initial residual = 0.477106, Final residual = 0.0101383, No Iterations 1
time step continuity errors : sum local = 2.61025e-17, global = -1.24675e-20, cumulative = -7.52254e-17
Pressure gradient source: uncorrected Ubar = 1, pressure gradient = 2.39925
GAMG:  Solving for p, Initial residual = 0.460227, Final residual = 0.00828388, No Iterations 1
time step continuity errors : sum local = 2.55727e-17, global = 1.86364e-20, cumulative = -7.52068e-17
Pressure gradient source: uncorrected Ubar = 1, pressure gradient = 2.39925
GAMG:  Solving for p, Initial residual = 0.454158, Final residual = 9.34546e-07, No Iterations 9
time step continuity errors : sum local = 2.5709e-17, global = -4.28525e-20, cumulative = -7.52496e-17
Pressure gradient source: uncorrected Ubar = 1, pressure gradient = 2.39925
ExecutionTime = 136.14 s  ClockTime = 136 s

Courant Number mean: 0.4 max: 0.599813
Time = 9.99

PIMPLE: iteration 1
GAMG:  Solving for p, Initial residual = 0.47238, Final residual = 0.0109922, No Iterations 1
time step continuity errors : sum local = 2.55672e-17, global = -8.58007e-20, cumulative = -7.53354e-17
Pressure gradient source: uncorrected Ubar = 1, pressure gradient = 2.39925
GAMG:  Solving for p, Initial residual = 0.444806, Final residual = 0.00774216, No Iterations 1
time step continuity errors : sum local = 2.5739e-17, global = -4.4541e-20, cumulative = -7.538e-17
Pressure gradient source: uncorrected Ubar = 1, pressure gradient = 2.39925
GAMG:  Solving for p, Initial residual = 0.447719, Final residual = 8.35862e-07, No Iterations 12
time step continuity errors : sum local = 2.59651e-17, global = 2.34249e-20, cumulative = -7.53565e-17
Pressure gradient source: uncorrected Ubar = 1, pressure gradient = 2.39925
ExecutionTime = 136.2 s  ClockTime = 136 s

Courant Number mean: 0.4 max: 0.599813
Time = 9.995

PIMPLE: iteration 1
GAMG:  Solving for p, Initial residual = 0.472183, Final residual = 0.00907725, No Iterations 1
time step continuity errors : sum local = 2.57702e-17, global = 1.03874e-19, cumulative = -7.52527e-17
Pressure gradient source: uncorrected Ubar = 1, pressure gradient = 2.39925
GAMG:  Solving for p, Initial residual = 0.449222, Final residual = 0.00925084, No Iterations 1
time step continuity errors : sum local = 2.58903e-17, global = 1.02193e-19, cumulative = -7.51505e-17
Pressure gradient source: uncorrected Ubar = 1, pressure gradient = 2.39925
GAMG:  Solving for p, Initial residual = 0.445094, Final residual = 6.84614e-07, No Iterations 13
time step continuity errors : sum local = 2.59088e-17, global = -1.79592e-19, cumulative = -7.53301e-17
Pressure gradient source: uncorrected Ubar = 1, pressure gradient = 2.39925
ExecutionTime = 136.26 s  ClockTime = 136 s

Courant Number mean: 0.4 max: 0.599813
Time = 10

PIMPLE: iteration 1
GAMG:  Solving for p, Initial residual = 0.484477, Final residual = 0.0115873, No Iterations 1
time step continuity errors : sum local = 2.56321e-17, global = 3.44005e-20, cumulative = -7.52957e-17
Pressure gradient source: uncorrected Ubar = 1, pressure gradient = 2.39925
GAMG:  Solving for p, Initial residual = 0.438387, Final residual = 0.0089972, No Iterations 1
time step continuity errors : sum local = 2.56753e-17, global = -1.92231e-19, cumulative = -7.54879e-17
Pressure gradient source: uncorrected Ubar = 1, pressure gradient = 2.39925
GAMG:  Solving for p, Initial residual = 0.439144, Final residual = 7.31565e-07, No Iterations 14
time step continuity errors : sum local = 2.59543e-17, global = -2.67902e-19, cumulative = -7.57558e-17
Pressure gradient source: uncorrected Ubar = 1, pressure gradient = 2.39925
ExecutionTime = 136.4 s  ClockTime = 136 s

End

