/*---------------------------------------------------------------------------*\
| =========                 |                                                 |
| \\      /  F ield         | OpenFOAM: The Open Source CFD Toolbox           |
|  \\    /   O peration     | Version:  2112                                  |
|   \\  /    A nd           | Website:  www.openfoam.com                      |
|    \\/     M anipulation  |                                                 |
\*---------------------------------------------------------------------------*/
Build  : _14aeaf8dab-20211220 OPENFOAM=2112 version=v2112
Arch   : "LSB;label=32;scalar=64"
Exec   : pimpleFoam
Date   : Feb 16 2023
Time   : 18:21:08
Host   : dia-Precision-7920-Tower
PID    : 49848
I/O    : uncollated
Case   : /home/corsi/OpenFOAM/corsi-v2112/run/RODOLFO/Fluid-dynamics/poiselle_exam
nProcs : 1
trapFpe: Floating point exception trapping enabled (FOAM_SIGFPE).
fileModificationChecking : Monitoring run-time modified files using timeStampMaster (fileModificationSkew 5, maxFileModificationPolls 20)
allowSystemOperations : Allowing user-supplied system call operations

// * * * * * * * * * * * * * * * * * * * * * * * * * * * * * * * * * * * * * //
Create time

Create mesh for time = 0


PIMPLE: Operating solver in PISO mode

Reading field p

Reading field U

Reading/calculating face flux field phi

Selecting incompressible transport model Newtonian
Selecting turbulence model type laminar
Selecting laminar stress model Stokes
No MRF models present

Creating finite volume options from "constant/fvOptions"

Selecting finite volume options type meanVelocityForce
    Source: momentumSource
    - selecting all cells
    - selected 50000 cell(s) with volume 1
    Initial pressure gradient = 0

Courant Number mean: 0 max: 0
Courant Number mean: 0 max: 0

Starting time loop

--> FOAM Warning : 
    From void Foam::timeControl::read(const Foam::dictionary&)
    in file db/functionObjects/timeControl/timeControl.C at line 131
    Reading "system/controlDict.functions.probes_object" at line 51 to 64
    Found deprecated 'outputControl'
    Use 'writeControl' with 'writeInterval'
Courant Number mean: 0 max: 0
Time = 0.005

PIMPLE: iteration 1
GAMG:  Solving for p, Initial residual = 0, Final residual = 0, No Iterations 0
time step continuity errors : sum local = 0, global = 0, cumulative = 0
Pressure gradient source: uncorrected Ubar = 0, pressure gradient = 451.642
GAMG:  Solving for p, Initial residual = 1, Final residual = 0.00601438, No Iterations 1
time step continuity errors : sum local = 1.11195e-17, global = -3.69237e-20, cumulative = -3.69237e-20
Pressure gradient source: uncorrected Ubar = 0.550763, pressure gradient = 202.894
GAMG:  Solving for p, Initial residual = 0.417434, Final residual = 9.85263e-07, No Iterations 16
time step continuity errors : sum local = 1.22088e-17, global = -8.99211e-20, cumulative = -1.26845e-19
Pressure gradient source: uncorrected Ubar = 0.551738, pressure gradient = 202.454
ExecutionTime = 1.06 s  ClockTime = 1 s

Courant Number mean: 0.137935 max: 0.140064
Time = 0.01

PIMPLE: iteration 1
GAMG:  Solving for p, Initial residual = 0.981936, Final residual = 0.0144621, No Iterations 1
time step continuity errors : sum local = 3.08491e-17, global = -3.13271e-20, cumulative = -1.58172e-19
Pressure gradient source: uncorrected Ubar = 1.44363, pressure gradient = 2.09073
GAMG:  Solving for p, Initial residual = 0.111997, Final residual = 0.00256252, No Iterations 1
time step continuity errors : sum local = 2.52663e-17, global = -1.01823e-19, cumulative = -2.59995e-19
Pressure gradient source: uncorrected Ubar = 1.44443, pressure gradient = 1.73007
GAMG:  Solving for p, Initial residual = 0.0468365, Final residual = 5.81476e-07, No Iterations 11
time step continuity errors : sum local = 2.49079e-17, global = 8.51451e-20, cumulative = -1.74849e-19
Pressure gradient source: uncorrected Ubar = 1.44458, pressure gradient = 1.66227
ExecutionTime = 1.2 s  ClockTime = 1 s

Courant Number mean: 0.351661 max: 0.356059
Time = 0.015

PIMPLE: iteration 1
GAMG:  Solving for p, Initial residual = 0.799031, Final residual = 0.0115455, No Iterations 1
time step continuity errors : sum local = 2.68681e-17, global = -3.45177e-20, cumulative = -2.09367e-19
Pressure gradient source: uncorrected Ubar = 1.00037, pressure gradient = 1.49616
GAMG:  Solving for p, Initial residual = 0.231799, Final residual = 0.00952006, No Iterations 1
time step continuity errors : sum local = 2.49678e-17, global = -8.22523e-20, cumulative = -2.91619e-19
Pressure gradient source: uncorrected Ubar = 1.00076, pressure gradient = 1.31714
GAMG:  Solving for p, Initial residual = 0.197526, Final residual = 8.6573e-07, No Iterations 23
time step continuity errors : sum local = 2.4622e-17, global = -5.99879e-21, cumulative = -2.97618e-19
Pressure gradient source: uncorrected Ubar = 1.00087, pressure gradient = 1.2708
ExecutionTime = 1.43 s  ClockTime = 1 s

Courant Number mean: 0.282191 max: 0.288231
Time = 0.02

PIMPLE: iteration 1
GAMG:  Solving for p, Initial residual = 0.512044, Final residual = 0.0154373, No Iterations 1
time step continuity errors : sum local = 2.46175e-17, global = -2.10583e-20, cumulative = -3.18676e-19
Pressure gradient source: uncorrected Ubar = 1.0002, pressure gradient = 1.18265
GAMG:  Solving for p, Initial residual = 0.313079, Final residual = 0.00725119, No Iterations 1
time step continuity errors : sum local = 2.44878e-17, global = -1.71443e-19, cumulative = -4.90119e-19
Pressure gradient source: uncorrected Ubar = 1.00041, pressure gradient = 1.08399
GAMG:  Solving for p, Initial residual = 0.291932, Final residual = 5.21033e-07, No Iterations 17
time step continuity errors : sum local = 2.44349e-17, global = 1.28487e-19, cumulative = -3.61633e-19
Pressure gradient source: uncorrected Ubar = 1.00049, pressure gradient = 1.05123
ExecutionTime = 1.58 s  ClockTime = 1 s

Courant Number mean: 0.262766 max: 0.269785
Time = 0.025

PIMPLE: iteration 1
GAMG:  Solving for p, Initial residual = 0.465038, Final residual = 0.00939066, No Iterations 1
time step continuity errors : sum local = 2.43654e-17, global = -3.78134e-20, cumulative = -3.99446e-19
Pressure gradient source: uncorrected Ubar = 1.00012, pressure gradient = 0.998855
GAMG:  Solving for p, Initial residual = 0.349535, Final residual = 0.0083527, No Iterations 1
time step continuity errors : sum local = 2.4474e-17, global = 2.50352e-20, cumulative = -3.74411e-19
Pressure gradient source: uncorrected Ubar = 1.00025, pressure gradient = 0.938492
GAMG:  Solving for p, Initial residual = 0.333394, Final residual = 5.04693e-07, No Iterations 28
time step continuity errors : sum local = 2.43152e-17, global = -1.10178e-19, cumulative = -4.84589e-19
Pressure gradient source: uncorrected Ubar = 1.0003, pressure gradient = 0.914444
ExecutionTime = 1.77 s  ClockTime = 1 s

Courant Number mean: 0.255465 max: 0.263365
Time = 0.03

PIMPLE: iteration 1
GAMG:  Solving for p, Initial residual = 0.507636, Final residual = 0.0123675, No Iterations 1
time step continuity errors : sum local = 2.46035e-17, global = -9.81226e-20, cumulative = -5.82712e-19
Pressure gradient source: uncorrected Ubar = 1.00008, pressure gradient = 0.879982
GAMG:  Solving for p, Initial residual = 0.359626, Final residual = 0.00927357, No Iterations 1
time step continuity errors : sum local = 2.43915e-17, global = 1.23361e-19, cumulative = -4.5935e-19
Pressure gradient source: uncorrected Ubar = 1.00017, pressure gradient = 0.839483
GAMG:  Solving for p, Initial residual = 0.361971, Final residual = 9.89616e-07, No Iterations 27
time step continuity errors : sum local = 2.39642e-17, global = -1.48825e-19, cumulative = -6.08176e-19
Pressure gradient source: uncorrected Ubar = 1.00021, pressure gradient = 0.821175
ExecutionTime = 1.95 s  ClockTime = 1 s

Courant Number mean: 0.252425 max: 0.261147
Time = 0.035

PIMPLE: iteration 1
GAMG:  Solving for p, Initial residual = 0.519659, Final residual = 0.00995014, No Iterations 1
time step continuity errors : sum local = 2.4123e-17, global = -9.24954e-20, cumulative = -7.00671e-19
Pressure gradient source: uncorrected Ubar = 1.00005, pressure gradient = 0.796562
GAMG:  Solving for p, Initial residual = 0.384089, Final residual = 0.00870318, No Iterations 1
time step continuity errors : sum local = 2.44612e-17, global = -8.99801e-20, cumulative = -7.90651e-19
Pressure gradient source: uncorrected Ubar = 1.00012, pressure gradient = 0.7673
GAMG:  Solving for p, Initial residual = 0.350273, Final residual = 9.4983e-07, No Iterations 20
time step continuity errors : sum local = 2.42949e-17, global = 1.15392e-19, cumulative = -6.75259e-19
Pressure gradient source: uncorrected Ubar = 1.00015, pressure gradient = 0.752899
ExecutionTime = 2.1 s  ClockTime = 2 s

Courant Number mean: 0.251104 max: 0.260596
Time = 0.04

PIMPLE: iteration 1
GAMG:  Solving for p, Initial residual = 0.538542, Final residual = 0.011347, No Iterations 1
time step continuity errors : sum local = 2.39714e-17, global = -1.26473e-19, cumulative = -8.01732e-19
Pressure gradient source: uncorrected Ubar = 1.00004, pressure gradient = 0.734209
GAMG:  Solving for p, Initial residual = 0.373911, Final residual = 0.00786275, No Iterations 1
time step continuity errors : sum local = 2.37048e-17, global = 1.38236e-20, cumulative = -7.87908e-19
Pressure gradient source: uncorrected Ubar = 1.00009, pressure gradient = 0.711846
GAMG:  Solving for p, Initial residual = 0.396042, Final residual = 9.14279e-07, No Iterations 28
time step continuity errors : sum local = 2.38099e-17, global = 6.74125e-22, cumulative = -7.87234e-19
Pressure gradient source: uncorrected Ubar = 1.00012, pressure gradient = 0.700195
ExecutionTime = 2.29 s  ClockTime = 2 s

Courant Number mean: 0.250517 max: 0.260733
Time = 0.045

PIMPLE: iteration 1
GAMG:  Solving for p, Initial residual = 0.545367, Final residual = 0.0118031, No Iterations 1
time step continuity errors : sum local = 2.37656e-17, global = -5.36088e-20, cumulative = -8.40843e-19
Pressure gradient source: uncorrected Ubar = 1.00003, pressure gradient = 0.685358
GAMG:  Solving for p, Initial residual = 0.405066, Final residual = 0.00979642, No Iterations 1
time step continuity errors : sum local = 2.39631e-17, global = 7.70071e-21, cumulative = -8.33142e-19
Pressure gradient source: uncorrected Ubar = 1.00007, pressure gradient = 0.667541
GAMG:  Solving for p, Initial residual = 0.386999, Final residual = 6.43587e-07, No Iterations 20
time step continuity errors : sum local = 2.40356e-17, global = -4.14776e-20, cumulative = -8.7462e-19
Pressure gradient source: uncorrected Ubar = 1.00009, pressure gradient = 0.657892
ExecutionTime = 2.44 s  ClockTime = 2 s

Courant Number mean: 0.250253 max: 0.261152
Time = 0.05

PIMPLE: iteration 1
GAMG:  Solving for p, Initial residual = 0.549969, Final residual = 0.0123063, No Iterations 1
time step continuity errors : sum local = 2.42604e-17, global = -3.87762e-20, cumulative = -9.13396e-19
Pressure gradient source: uncorrected Ubar = 1.00003, pressure gradient = 0.645723
GAMG:  Solving for p, Initial residual = 0.39315, Final residual = 0.00851499, No Iterations 1
time step continuity errors : sum local = 2.44472e-17, global = -2.014e-20, cumulative = -9.33536e-19
Pressure gradient source: uncorrected Ubar = 1.00006, pressure gradient = 0.631082
GAMG:  Solving for p, Initial residual = 0.393175, Final residual = 5.15838e-07, No Iterations 26
time step continuity errors : sum local = 2.32366e-17, global = -1.07642e-19, cumulative = -1.04118e-18
Pressure gradient source: uncorrected Ubar = 1.00008, pressure gradient = 0.622932
ExecutionTime = 2.62 s  ClockTime = 2 s

Courant Number mean: 0.250131 max: 0.26168
Time = 0.055

PIMPLE: iteration 1
GAMG:  Solving for p, Initial residual = 0.534301, Final residual = 0.0113758, No Iterations 1
time step continuity errors : sum local = 2.28353e-17, global = -3.12356e-20, cumulative = -1.07241e-18
Pressure gradient source: uncorrected Ubar = 1.00002, pressure gradient = 0.612706
GAMG:  Solving for p, Initial residual = 0.398823, Final residual = 0.00821577, No Iterations 1
time step continuity errors : sum local = 2.28471e-17, global = -7.07812e-20, cumulative = -1.1432e-18
Pressure gradient source: uncorrected Ubar = 1.00005, pressure gradient = 0.600388
GAMG:  Solving for p, Initial residual = 0.383535, Final residual = 9.43057e-07, No Iterations 25
time step continuity errors : sum local = 2.29489e-17, global = 3.54008e-20, cumulative = -1.10779e-18
Pressure gradient source: uncorrected Ubar = 1.00007, pressure gradient = 0.593392
ExecutionTime = 2.79 s  ClockTime = 2 s

Courant Number mean: 0.250075 max: 0.262243
Time = 0.06

PIMPLE: iteration 1
GAMG:  Solving for p, Initial residual = 0.549398, Final residual = 0.0111354, No Iterations 1
time step continuity errors : sum local = 2.30038e-17, global = 4.11489e-21, cumulative = -1.10368e-18
Pressure gradient source: uncorrected Ubar = 1.00002, pressure gradient = 0.584636
GAMG:  Solving for p, Initial residual = 0.381559, Final residual = 0.00859048, No Iterations 1
time step continuity errors : sum local = 2.32717e-17, global = 1.9936e-20, cumulative = -1.08374e-18
Pressure gradient source: uncorrected Ubar = 1.00004, pressure gradient = 0.574078
GAMG:  Solving for p, Initial residual = 0.374997, Final residual = 8.89713e-07, No Iterations 19
time step continuity errors : sum local = 2.3113e-17, global = -4.17788e-21, cumulative = -1.08792e-18
Pressure gradient source: uncorrected Ubar = 1.00006, pressure gradient = 0.567991
ExecutionTime = 2.93 s  ClockTime = 2 s

Courant Number mean: 0.250047 max: 0.262808
Time = 0.065

PIMPLE: iteration 1
GAMG:  Solving for p, Initial residual = 0.519665, Final residual = 0.0106814, No Iterations 1
time step continuity errors : sum local = 2.29038e-17, global = -4.84509e-20, cumulative = -1.13637e-18
Pressure gradient source: uncorrected Ubar = 1.00002, pressure gradient = 0.560381
GAMG:  Solving for p, Initial residual = 0.407455, Final residual = 0.00809657, No Iterations 1
time step continuity errors : sum local = 2.29363e-17, global = -1.39184e-19, cumulative = -1.27556e-18
Pressure gradient source: uncorrected Ubar = 1.00004, pressure gradient = 0.551198
GAMG:  Solving for p, Initial residual = 0.400885, Final residual = 7.13577e-07, No Iterations 18
time step continuity errors : sum local = 2.37754e-17, global = 5.25412e-20, cumulative = -1.22302e-18
Pressure gradient source: uncorrected Ubar = 1.00005, pressure gradient = 0.545839
ExecutionTime = 3.07 s  ClockTime = 3 s

Courant Number mean: 0.250033 max: 0.263363
Time = 0.07

PIMPLE: iteration 1
GAMG:  Solving for p, Initial residual = 0.549888, Final residual = 0.0113921, No Iterations 1
time step continuity errors : sum local = 2.38493e-17, global = -4.08e-20, cumulative = -1.26382e-18
Pressure gradient source: uncorrected Ubar = 1.00001, pressure gradient = 0.539144
GAMG:  Solving for p, Initial residual = 0.399894, Final residual = 0.00762963, No Iterations 1
time step continuity errors : sum local = 2.32587e-17, global = 3.60816e-20, cumulative = -1.22773e-18
Pressure gradient source: uncorrected Ubar = 1.00003, pressure gradient = 0.53106
GAMG:  Solving for p, Initial residual = 0.394261, Final residual = 9.59639e-07, No Iterations 26
time step continuity errors : sum local = 2.36401e-17, global = 2.85574e-20, cumulative = -1.19918e-18
Pressure gradient source: uncorrected Ubar = 1.00004, pressure gradient = 0.526297
ExecutionTime = 3.25 s  ClockTime = 3 s

Courant Number mean: 0.250026 max: 0.263904
Time = 0.075

PIMPLE: iteration 1
GAMG:  Solving for p, Initial residual = 0.548045, Final residual = 0.0113629, No Iterations 1
time step continuity errors : sum local = 2.33136e-17, global = -4.45405e-20, cumulative = -1.24372e-18
Pressure gradient source: uncorrected Ubar = 1.00001, pressure gradient = 0.520346
GAMG:  Solving for p, Initial residual = 0.3913, Final residual = 0.0086589, No Iterations 1
time step continuity errors : sum local = 2.34217e-17, global = -2.18008e-20, cumulative = -1.26552e-18
Pressure gradient source: uncorrected Ubar = 1.00003, pressure gradient = 0.513157
GAMG:  Solving for p, Initial residual = 0.383213, Final residual = 9.11484e-07, No Iterations 28
time step continuity errors : sum local = 2.301e-17, global = -7.60247e-20, cumulative = -1.34154e-18
Pressure gradient source: uncorrected Ubar = 1.00004, pressure gradient = 0.508887
ExecutionTime = 3.44 s  ClockTime = 3 s

Courant Number mean: 0.250021 max: 0.264429
Time = 0.08

PIMPLE: iteration 1
GAMG:  Solving for p, Initial residual = 0.52905, Final residual = 0.0122699, No Iterations 1
time step continuity errors : sum local = 2.293e-17, global = -1.05754e-19, cumulative = -1.4473e-18
Pressure gradient source: uncorrected Ubar = 1.00001, pressure gradient = 0.503552
GAMG:  Solving for p, Initial residual = 0.393592, Final residual = 0.00845285, No Iterations 1
time step continuity errors : sum local = 2.28004e-17, global = -2.78846e-20, cumulative = -1.47518e-18
Pressure gradient source: uncorrected Ubar = 1.00003, pressure gradient = 0.497104
GAMG:  Solving for p, Initial residual = 0.378481, Final residual = 7.58919e-07, No Iterations 28
time step continuity errors : sum local = 2.3338e-17, global = 2.34204e-20, cumulative = -1.45176e-18
Pressure gradient source: uncorrected Ubar = 1.00003, pressure gradient = 0.493248
ExecutionTime = 3.63 s  ClockTime = 3 s

Courant Number mean: 0.250018 max: 0.26494
Time = 0.085

PIMPLE: iteration 1
GAMG:  Solving for p, Initial residual = 0.533816, Final residual = 0.0116583, No Iterations 1
time step continuity errors : sum local = 2.29044e-17, global = -7.49704e-20, cumulative = -1.52673e-18
Pressure gradient source: uncorrected Ubar = 1.00001, pressure gradient = 0.488429
GAMG:  Solving for p, Initial residual = 0.388235, Final residual = 0.00845628, No Iterations 1
time step continuity errors : sum local = 2.25291e-17, global = -6.15172e-20, cumulative = -1.58825e-18
Pressure gradient source: uncorrected Ubar = 1.00002, pressure gradient = 0.482603
GAMG:  Solving for p, Initial residual = 0.388956, Final residual = 6.08413e-07, No Iterations 29
time step continuity errors : sum local = 2.36836e-17, global = -2.82355e-20, cumulative = -1.61648e-18
Pressure gradient source: uncorrected Ubar = 1.00003, pressure gradient = 0.479098
ExecutionTime = 3.82 s  ClockTime = 3 s

Courant Number mean: 0.250016 max: 0.265437
Time = 0.09

PIMPLE: iteration 1
GAMG:  Solving for p, Initial residual = 0.530811, Final residual = 0.0117564, No Iterations 1
time step continuity errors : sum local = 2.29278e-17, global = 4.24712e-20, cumulative = -1.57401e-18
Pressure gradient source: uncorrected Ubar = 1.00001, pressure gradient = 0.474718
GAMG:  Solving for p, Initial residual = 0.390222, Final residual = 0.0085277, No Iterations 1
time step continuity errors : sum local = 2.29292e-17, global = 1.66872e-20, cumulative = -1.55733e-18
Pressure gradient source: uncorrected Ubar = 1.00002, pressure gradient = 0.469419
GAMG:  Solving for p, Initial residual = 0.38695, Final residual = 9.2666e-07, No Iterations 22
time step continuity errors : sum local = 2.3465e-17, global = -1.37048e-19, cumulative = -1.69437e-18
Pressure gradient source: uncorrected Ubar = 1.00003, pressure gradient = 0.466216
ExecutionTime = 3.98 s  ClockTime = 4 s

Courant Number mean: 0.250014 max: 0.26592
Time = 0.095

PIMPLE: iteration 1
GAMG:  Solving for p, Initial residual = 0.544582, Final residual = 0.0121981, No Iterations 1
time step continuity errors : sum local = 2.34009e-17, global = -6.34968e-20, cumulative = -1.75787e-18
Pressure gradient source: uncorrected Ubar = 1.00001, pressure gradient = 0.462211
GAMG:  Solving for p, Initial residual = 0.39181, Final residual = 0.00990276, No Iterations 1
time step continuity errors : sum local = 2.33854e-17, global = -4.38429e-20, cumulative = -1.80171e-18
Pressure gradient source: uncorrected Ubar = 1.00002, pressure gradient = 0.457366
GAMG:  Solving for p, Initial residual = 0.37732, Final residual = 9.30804e-07, No Iterations 20
time step continuity errors : sum local = 2.33617e-17, global = -3.16019e-20, cumulative = -1.83331e-18
Pressure gradient source: uncorrected Ubar = 1.00003, pressure gradient = 0.454423
ExecutionTime = 4.13 s  ClockTime = 4 s

Courant Number mean: 0.250013 max: 0.266392
Time = 0.1

PIMPLE: iteration 1
GAMG:  Solving for p, Initial residual = 0.546303, Final residual = 0.0121756, No Iterations 1
time step continuity errors : sum local = 2.35981e-17, global = 1.3727e-19, cumulative = -1.69605e-18
Pressure gradient source: uncorrected Ubar = 1.00001, pressure gradient = 0.450743
GAMG:  Solving for p, Initial residual = 0.411054, Final residual = 0.00775619, No Iterations 1
time step continuity errors : sum local = 2.26932e-17, global = -9.70288e-20, cumulative = -1.79307e-18
Pressure gradient source: uncorrected Ubar = 1.00002, pressure gradient = 0.446289
GAMG:  Solving for p, Initial residual = 0.387445, Final residual = 4.80665e-07, No Iterations 24
time step continuity errors : sum local = 2.3437e-17, global = -1.15052e-19, cumulative = -1.90813e-18
Pressure gradient source: uncorrected Ubar = 1.00002, pressure gradient = 0.443573
ExecutionTime = 4.3 s  ClockTime = 4 s

Courant Number mean: 0.250012 max: 0.266852
Time = 0.105

PIMPLE: iteration 1
GAMG:  Solving for p, Initial residual = 0.536783, Final residual = 0.0112865, No Iterations 1
time step continuity errors : sum local = 2.36925e-17, global = 4.10908e-20, cumulative = -1.86704e-18
Pressure gradient source: uncorrected Ubar = 1.00001, pressure gradient = 0.440177
GAMG:  Solving for p, Initial residual = 0.396795, Final residual = 0.00994283, No Iterations 1
time step continuity errors : sum local = 2.35862e-17, global = 8.9996e-22, cumulative = -1.86614e-18
Pressure gradient source: uncorrected Ubar = 1.00002, pressure gradient = 0.436065
GAMG:  Solving for p, Initial residual = 0.399401, Final residual = 5.00979e-07, No Iterations 24
time step continuity errors : sum local = 2.36642e-17, global = 9.21476e-20, cumulative = -1.77399e-18
Pressure gradient source: uncorrected Ubar = 1.00002, pressure gradient = 0.433549
ExecutionTime = 4.46 s  ClockTime = 4 s

Courant Number mean: 0.250011 max: 0.267302
Time = 0.11

PIMPLE: iteration 1
GAMG:  Solving for p, Initial residual = 0.544404, Final residual = 0.0100425, No Iterations 1
time step continuity errors : sum local = 2.29138e-17, global = 2.56715e-20, cumulative = -1.74832e-18
Pressure gradient source: uncorrected Ubar = 1.00001, pressure gradient = 0.430401
GAMG:  Solving for p, Initial residual = 0.403767, Final residual = 0.0066094, No Iterations 1
time step continuity errors : sum local = 2.26623e-17, global = -3.53476e-20, cumulative = -1.78366e-18
Pressure gradient source: uncorrected Ubar = 1.00002, pressure gradient = 0.426589
GAMG:  Solving for p, Initial residual = 0.393835, Final residual = 5.87334e-07, No Iterations 22
time step continuity errors : sum local = 2.32237e-17, global = -1.31823e-19, cumulative = -1.91549e-18
Pressure gradient source: uncorrected Ubar = 1.00002, pressure gradient = 0.42425
ExecutionTime = 4.62 s  ClockTime = 4 s

Courant Number mean: 0.25001 max: 0.267743
Time = 0.115

PIMPLE: iteration 1
GAMG:  Solving for p, Initial residual = 0.53564, Final residual = 0.0116393, No Iterations 1
time step continuity errors : sum local = 2.34199e-17, global = 1.83171e-20, cumulative = -1.89717e-18
Pressure gradient source: uncorrected Ubar = 1.00001, pressure gradient = 0.421322
GAMG:  Solving for p, Initial residual = 0.397606, Final residual = 0.00773539, No Iterations 1
time step continuity errors : sum local = 2.28819e-17, global = 2.09974e-20, cumulative = -1.87617e-18
Pressure gradient source: uncorrected Ubar = 1.00001, pressure gradient = 0.417776
GAMG:  Solving for p, Initial residual = 0.396367, Final residual = 9.97923e-07, No Iterations 20
time step continuity errors : sum local = 2.31469e-17, global = -2.3305e-20, cumulative = -1.89948e-18
Pressure gradient source: uncorrected Ubar = 1.00002, pressure gradient = 0.415593
ExecutionTime = 4.77 s  ClockTime = 4 s

Courant Number mean: 0.250009 max: 0.268174
Time = 0.12

PIMPLE: iteration 1
GAMG:  Solving for p, Initial residual = 0.555693, Final residual = 0.0117027, No Iterations 1
time step continuity errors : sum local = 2.3072e-17, global = -1.51578e-20, cumulative = -1.91463e-18
Pressure gradient source: uncorrected Ubar = 1.00001, pressure gradient = 0.412861
GAMG:  Solving for p, Initial residual = 0.39364, Final residual = 0.00842217, No Iterations 1
time step continuity errors : sum local = 2.29409e-17, global = -1.42577e-19, cumulative = -2.05721e-18
Pressure gradient source: uncorrected Ubar = 1.00001, pressure gradient = 0.409551
GAMG:  Solving for p, Initial residual = 0.389325, Final residual = 9.71137e-07, No Iterations 24
time step continuity errors : sum local = 2.32452e-17, global = 4.63107e-20, cumulative = -2.0109e-18
Pressure gradient source: uncorrected Ubar = 1.00002, pressure gradient = 0.407508
ExecutionTime = 4.94 s  ClockTime = 4 s

Courant Number mean: 0.250009 max: 0.268597
Time = 0.125

PIMPLE: iteration 1
GAMG:  Solving for p, Initial residual = 0.533521, Final residual = 0.0104919, No Iterations 1
time step continuity errors : sum local = 2.2837e-17, global = 5.04079e-20, cumulative = -1.96049e-18
Pressure gradient source: uncorrected Ubar = 1.00001, pressure gradient = 0.404951
GAMG:  Solving for p, Initial residual = 0.404907, Final residual = 0.0086147, No Iterations 1
time step continuity errors : sum local = 2.26212e-17, global = -8.33986e-20, cumulative = -2.04389e-18
Pressure gradient source: uncorrected Ubar = 1.00001, pressure gradient = 0.401852
GAMG:  Solving for p, Initial residual = 0.39553, Final residual = 9.30956e-07, No Iterations 23
time step continuity errors : sum local = 2.22332e-17, global = 2.30559e-20, cumulative = -2.02084e-18
Pressure gradient source: uncorrected Ubar = 1.00002, pressure gradient = 0.399935
ExecutionTime = 5.1 s  ClockTime = 5 s

Courant Number mean: 0.250008 max: 0.269012
Time = 0.13

PIMPLE: iteration 1
GAMG:  Solving for p, Initial residual = 0.520829, Final residual = 0.0122477, No Iterations 1
time step continuity errors : sum local = 2.20596e-17, global = -1.13699e-20, cumulative = -2.03221e-18
Pressure gradient source: uncorrected Ubar = 1.00001, pressure gradient = 0.397535
GAMG:  Solving for p, Initial residual = 0.395548, Final residual = 0.00809852, No Iterations 1
time step continuity errors : sum local = 2.2245e-17, global = 1.19793e-20, cumulative = -2.02023e-18
Pressure gradient source: uncorrected Ubar = 1.00001, pressure gradient = 0.394625
GAMG:  Solving for p, Initial residual = 0.386121, Final residual = 6.04995e-07, No Iterations 14
time step continuity errors : sum local = 2.23948e-17, global = -1.80387e-20, cumulative = -2.03827e-18
Pressure gradient source: uncorrected Ubar = 1.00002, pressure gradient = 0.392822
ExecutionTime = 5.22 s  ClockTime = 5 s

Courant Number mean: 0.250007 max: 0.26942
Time = 0.135

PIMPLE: iteration 1
GAMG:  Solving for p, Initial residual = 0.530734, Final residual = 0.0116051, No Iterations 1
time step continuity errors : sum local = 2.20812e-17, global = 3.377e-20, cumulative = -2.0045e-18
Pressure gradient source: uncorrected Ubar = 1.00001, pressure gradient = 0.390563
GAMG:  Solving for p, Initial residual = 0.383722, Final residual = 0.00859286, No Iterations 1
time step continuity errors : sum local = 2.23254e-17, global = 6.0115e-20, cumulative = -1.94438e-18
Pressure gradient source: uncorrected Ubar = 1.00001, pressure gradient = 0.387825
GAMG:  Solving for p, Initial residual = 0.375488, Final residual = 8.62877e-07, No Iterations 17
time step continuity errors : sum local = 2.25849e-17, global = 4.69555e-21, cumulative = -1.93968e-18
Pressure gradient source: uncorrected Ubar = 1.00001, pressure gradient = 0.386124
ExecutionTime = 5.35 s  ClockTime = 5 s

Courant Number mean: 0.250007 max: 0.26982
Time = 0.14

PIMPLE: iteration 1
GAMG:  Solving for p, Initial residual = 0.532329, Final residual = 0.0113264, No Iterations 1
time step continuity errors : sum local = 2.24615e-17, global = 2.21201e-20, cumulative = -1.91756e-18
Pressure gradient source: uncorrected Ubar = 1, pressure gradient = 0.383994
GAMG:  Solving for p, Initial residual = 0.38942, Final residual = 0.00836796, No Iterations 1
time step continuity errors : sum local = 2.2306e-17, global = -1.24219e-19, cumulative = -2.04178e-18
Pressure gradient source: uncorrected Ubar = 1.00001, pressure gradient = 0.38141
GAMG:  Solving for p, Initial residual = 0.387182, Final residual = 9.18589e-07, No Iterations 20
time step continuity errors : sum local = 2.32052e-17, global = -1.08577e-19, cumulative = -2.15036e-18
Pressure gradient source: uncorrected Ubar = 1.00001, pressure gradient = 0.379803
ExecutionTime = 5.5 s  ClockTime = 5 s

Courant Number mean: 0.250007 max: 0.270215
Time = 0.145

PIMPLE: iteration 1
GAMG:  Solving for p, Initial residual = 0.542477, Final residual = 0.0110403, No Iterations 1
time step continuity errors : sum local = 2.28208e-17, global = -1.05126e-19, cumulative = -2.25549e-18
Pressure gradient source: uncorrected Ubar = 1, pressure gradient = 0.37779
GAMG:  Solving for p, Initial residual = 0.392742, Final residual = 0.00878661, No Iterations 1
time step continuity errors : sum local = 2.23251e-17, global = -9.86389e-20, cumulative = -2.35413e-18
Pressure gradient source: uncorrected Ubar = 1.00001, pressure gradient = 0.375347
GAMG:  Solving for p, Initial residual = 0.386025, Final residual = 6.17466e-07, No Iterations 17
time step continuity errors : sum local = 2.28934e-17, global = 4.82231e-21, cumulative = -2.3493e-18
Pressure gradient source: uncorrected Ubar = 1.00001, pressure gradient = 0.373826
ExecutionTime = 5.63 s  ClockTime = 5 s

Courant Number mean: 0.250006 max: 0.270602
Time = 0.15

PIMPLE: iteration 1
GAMG:  Solving for p, Initial residual = 0.538504, Final residual = 0.00920246, No Iterations 1
time step continuity errors : sum local = 2.2723e-17, global = 4.91783e-20, cumulative = -2.30013e-18
Pressure gradient source: uncorrected Ubar = 1, pressure gradient = 0.371918
GAMG:  Solving for p, Initial residual = 0.391191, Final residual = 0.00822145, No Iterations 1
time step continuity errors : sum local = 2.26802e-17, global = 1.25609e-19, cumulative = -2.17452e-18
Pressure gradient source: uncorrected Ubar = 1.00001, pressure gradient = 0.369604
GAMG:  Solving for p, Initial residual = 0.391013, Final residual = 8.5262e-07, No Iterations 23
time step continuity errors : sum local = 2.26022e-17, global = -1.24188e-19, cumulative = -2.2987e-18
Pressure gradient source: uncorrected Ubar = 1.00001, pressure gradient = 0.368161
ExecutionTime = 5.8 s  ClockTime = 5 s

Courant Number mean: 0.250006 max: 0.270984
Time = 0.155

PIMPLE: iteration 1
GAMG:  Solving for p, Initial residual = 0.548475, Final residual = 0.0117099, No Iterations 1
time step continuity errors : sum local = 2.32879e-17, global = 4.21878e-20, cumulative = -2.25652e-18
Pressure gradient source: uncorrected Ubar = 1, pressure gradient = 0.366351
GAMG:  Solving for p, Initial residual = 0.398877, Final residual = 0.0082888, No Iterations 1
time step continuity errors : sum local = 2.30257e-17, global = 3.021e-20, cumulative = -2.22631e-18
Pressure gradient source: uncorrected Ubar = 1.00001, pressure gradient = 0.364155
GAMG:  Solving for p, Initial residual = 0.392219, Final residual = 9.03462e-07, No Iterations 22
time step continuity errors : sum local = 2.33808e-17, global = -4.51815e-20, cumulative = -2.27149e-18
Pressure gradient source: uncorrected Ubar = 1.00001, pressure gradient = 0.362783
ExecutionTime = 5.95 s  ClockTime = 5 s

Courant Number mean: 0.250006 max: 0.271361
Time = 0.16

PIMPLE: iteration 1
GAMG:  Solving for p, Initial residual = 0.550175, Final residual = 0.0113897, No Iterations 1
time step continuity errors : sum local = 2.31238e-17, global = 2.32139e-20, cumulative = -2.24827e-18
Pressure gradient source: uncorrected Ubar = 1, pressure gradient = 0.361062
GAMG:  Solving for p, Initial residual = 0.399456, Final residual = 0.00969773, No Iterations 1
time step continuity errors : sum local = 2.26205e-17, global = 6.38124e-21, cumulative = -2.24189e-18
Pressure gradient source: uncorrected Ubar = 1.00001, pressure gradient = 0.358975
GAMG:  Solving for p, Initial residual = 0.391556, Final residual = 7.21158e-07, No Iterations 27
time step continuity errors : sum local = 2.28566e-17, global = -2.33122e-20, cumulative = -2.26521e-18
Pressure gradient source: uncorrected Ubar = 1.00001, pressure gradient = 0.357668
ExecutionTime = 6.12 s  ClockTime = 6 s

Courant Number mean: 0.250005 max: 0.271732
Time = 0.165

PIMPLE: iteration 1
GAMG:  Solving for p, Initial residual = 0.553925, Final residual = 0.0101231, No Iterations 1
time step continuity errors : sum local = 2.28111e-17, global = 6.25678e-20, cumulative = -2.20264e-18
Pressure gradient source: uncorrected Ubar = 1, pressure gradient = 0.35603
GAMG:  Solving for p, Initial residual = 0.399278, Final residual = 0.00853779, No Iterations 1
time step continuity errors : sum local = 2.27976e-17, global = -1.09869e-19, cumulative = -2.31251e-18
Pressure gradient source: uncorrected Ubar = 1.00001, pressure gradient = 0.354042
GAMG:  Solving for p, Initial residual = 0.394876, Final residual = 8.14818e-07, No Iterations 20
time step continuity errors : sum local = 2.27916e-17, global = -5.91572e-20, cumulative = -2.37166e-18
Pressure gradient source: uncorrected Ubar = 1.00001, pressure gradient = 0.352797
ExecutionTime = 6.26 s  ClockTime = 6 s

Courant Number mean: 0.250005 max: 0.272098
Time = 0.17

PIMPLE: iteration 1
GAMG:  Solving for p, Initial residual = 0.529869, Final residual = 0.0116319, No Iterations 1
time step continuity errors : sum local = 2.29216e-17, global = -8.18156e-22, cumulative = -2.37248e-18
Pressure gradient source: uncorrected Ubar = 1, pressure gradient = 0.351235
GAMG:  Solving for p, Initial residual = 0.406401, Final residual = 0.0115088, No Iterations 1
time step continuity errors : sum local = 2.28335e-17, global = -1.8443e-20, cumulative = -2.39093e-18
Pressure gradient source: uncorrected Ubar = 1.00001, pressure gradient = 0.349339
GAMG:  Solving for p, Initial residual = 0.402358, Final residual = 8.3154e-07, No Iterations 27
time step continuity errors : sum local = 2.27589e-17, global = -1.58823e-19, cumulative = -2.54975e-18
Pressure gradient source: uncorrected Ubar = 1.00001, pressure gradient = 0.34815
ExecutionTime = 6.44 s  ClockTime = 6 s

Courant Number mean: 0.250005 max: 0.272459
Time = 0.175

PIMPLE: iteration 1
GAMG:  Solving for p, Initial residual = 0.529654, Final residual = 0.0127439, No Iterations 1
time step continuity errors : sum local = 2.24671e-17, global = 4.05827e-20, cumulative = -2.50917e-18
Pressure gradient source: uncorrected Ubar = 1, pressure gradient = 0.346658
GAMG:  Solving for p, Initial residual = 0.406456, Final residual = 0.0122508, No Iterations 1
time step continuity errors : sum local = 2.29748e-17, global = -2.42721e-20, cumulative = -2.53344e-18
Pressure gradient source: uncorrected Ubar = 1.00001, pressure gradient = 0.344847
GAMG:  Solving for p, Initial residual = 0.395386, Final residual = 8.38871e-07, No Iterations 30
time step continuity errors : sum local = 2.29429e-17, global = -4.09217e-20, cumulative = -2.57436e-18
Pressure gradient source: uncorrected Ubar = 1.00001, pressure gradient = 0.34371
ExecutionTime = 6.63 s  ClockTime = 6 s

Courant Number mean: 0.250005 max: 0.272816
Time = 0.18

PIMPLE: iteration 1
GAMG:  Solving for p, Initial residual = 0.542189, Final residual = 0.0127187, No Iterations 1
time step continuity errors : sum local = 2.28816e-17, global = 9.31566e-20, cumulative = -2.4812e-18
Pressure gradient source: uncorrected Ubar = 1, pressure gradient = 0.342284
GAMG:  Solving for p, Initial residual = 0.409654, Final residual = 0.0109275, No Iterations 1
time step continuity errors : sum local = 2.31119e-17, global = -4.38427e-20, cumulative = -2.52505e-18
Pressure gradient source: uncorrected Ubar = 1.00001, pressure gradient = 0.340552
GAMG:  Solving for p, Initial residual = 0.402628, Final residual = 6.90146e-07, No Iterations 29
time step continuity errors : sum local = 2.29239e-17, global = 5.69379e-20, cumulative = -2.46811e-18
Pressure gradient source: uncorrected Ubar = 1.00001, pressure gradient = 0.339463
ExecutionTime = 6.82 s  ClockTime = 6 s

Courant Number mean: 0.250004 max: 0.273168
Time = 0.185

PIMPLE: iteration 1
GAMG:  Solving for p, Initial residual = 0.559577, Final residual = 0.0128678, No Iterations 1
time step continuity errors : sum local = 2.2992e-17, global = -1.68099e-20, cumulative = -2.48492e-18
Pressure gradient source: uncorrected Ubar = 1, pressure gradient = 0.338098
GAMG:  Solving for p, Initial residual = 0.39882, Final residual = 0.00836589, No Iterations 1
time step continuity errors : sum local = 2.29276e-17, global = -1.49386e-19, cumulative = -2.6343e-18
Pressure gradient source: uncorrected Ubar = 1.00001, pressure gradient = 0.336439
GAMG:  Solving for p, Initial residual = 0.397168, Final residual = 8.53893e-07, No Iterations 16
time step continuity errors : sum local = 2.21857e-17, global = -2.87966e-20, cumulative = -2.6631e-18
Pressure gradient source: uncorrected Ubar = 1.00001, pressure gradient = 0.335396
ExecutionTime = 6.94 s  ClockTime = 6 s

Courant Number mean: 0.250004 max: 0.273516
Time = 0.19

PIMPLE: iteration 1
GAMG:  Solving for p, Initial residual = 0.547116, Final residual = 0.0116522, No Iterations 1
time step continuity errors : sum local = 2.14358e-17, global = 1.15514e-20, cumulative = -2.65155e-18
Pressure gradient source: uncorrected Ubar = 1, pressure gradient = 0.334087
GAMG:  Solving for p, Initial residual = 0.399824, Final residual = 0.0074547, No Iterations 1
time step continuity errors : sum local = 2.16297e-17, global = 1.93687e-20, cumulative = -2.63218e-18
Pressure gradient source: uncorrected Ubar = 1.00001, pressure gradient = 0.332497
GAMG:  Solving for p, Initial residual = 0.39529, Final residual = 9.61435e-07, No Iterations 29
time step continuity errors : sum local = 2.26417e-17, global = -5.16834e-20, cumulative = -2.68386e-18
Pressure gradient source: uncorrected Ubar = 1.00001, pressure gradient = 0.331496
ExecutionTime = 7.12 s  ClockTime = 7 s

Courant Number mean: 0.250004 max: 0.27386
Time = 0.195

PIMPLE: iteration 1
GAMG:  Solving for p, Initial residual = 0.538929, Final residual = 0.0114573, No Iterations 1
time step continuity errors : sum local = 2.25737e-17, global = -3.40221e-20, cumulative = -2.71788e-18
Pressure gradient source: uncorrected Ubar = 1, pressure gradient = 0.330239
GAMG:  Solving for p, Initial residual = 0.405633, Final residual = 0.00893206, No Iterations 1
time step continuity errors : sum local = 2.2179e-17, global = 8.88637e-21, cumulative = -2.709e-18
Pressure gradient source: uncorrected Ubar = 1.00001, pressure gradient = 0.328713
GAMG:  Solving for p, Initial residual = 0.395589, Final residual = 9.66107e-07, No Iterations 25
time step continuity errors : sum local = 2.26759e-17, global = -1.65694e-20, cumulative = -2.72557e-18
Pressure gradient source: uncorrected Ubar = 1.00001, pressure gradient = 0.327752
ExecutionTime = 7.29 s  ClockTime = 7 s

Courant Number mean: 0.250004 max: 0.2742
Time = 0.2

PIMPLE: iteration 1
GAMG:  Solving for p, Initial residual = 0.539441, Final residual = 0.0111228, No Iterations 1
time step continuity errors : sum local = 2.2944e-17, global = -1.73019e-20, cumulative = -2.74287e-18
Pressure gradient source: uncorrected Ubar = 1, pressure gradient = 0.326545
GAMG:  Solving for p, Initial residual = 0.400105, Final residual = 0.00996693, No Iterations 1
time step continuity errors : sum local = 2.31852e-17, global = -5.75006e-20, cumulative = -2.80037e-18
Pressure gradient source: uncorrected Ubar = 1.00001, pressure gradient = 0.325078
GAMG:  Solving for p, Initial residual = 0.401656, Final residual = 9.52391e-07, No Iterations 28
time step continuity errors : sum local = 2.26463e-17, global = -4.58904e-20, cumulative = -2.84626e-18
Pressure gradient source: uncorrected Ubar = 1.00001, pressure gradient = 0.324154
ExecutionTime = 7.47 s  ClockTime = 7 s

Courant Number mean: 0.250004 max: 0.274536
Time = 0.205

PIMPLE: iteration 1
GAMG:  Solving for p, Initial residual = 0.538795, Final residual = 0.011356, No Iterations 1
time step continuity errors : sum local = 2.2848e-17, global = -1.21896e-19, cumulative = -2.96816e-18
Pressure gradient source: uncorrected Ubar = 1, pressure gradient = 0.322993
GAMG:  Solving for p, Initial residual = 0.390763, Final residual = 0.00832379, No Iterations 1
time step continuity errors : sum local = 2.25968e-17, global = -3.97081e-20, cumulative = -3.00787e-18
Pressure gradient source: uncorrected Ubar = 1.00001, pressure gradient = 0.321583
GAMG:  Solving for p, Initial residual = 0.392319, Final residual = 8.06244e-07, No Iterations 19
time step continuity errors : sum local = 2.25452e-17, global = -7.01374e-20, cumulative = -3.078e-18
Pressure gradient source: uncorrected Ubar = 1.00001, pressure gradient = 0.320692
ExecutionTime = 7.61 s  ClockTime = 7 s

Courant Number mean: 0.250004 max: 0.274869
Time = 0.21

PIMPLE: iteration 1
GAMG:  Solving for p, Initial residual = 0.53415, Final residual = 0.0115031, No Iterations 1
time step continuity errors : sum local = 2.26837e-17, global = -5.49865e-21, cumulative = -3.0835e-18
Pressure gradient source: uncorrected Ubar = 1, pressure gradient = 0.319575
GAMG:  Solving for p, Initial residual = 0.405945, Final residual = 0.0103551, No Iterations 1
time step continuity errors : sum local = 2.18796e-17, global = -1.71407e-19, cumulative = -3.25491e-18
Pressure gradient source: uncorrected Ubar = 1.00001, pressure gradient = 0.318217
GAMG:  Solving for p, Initial residual = 0.395224, Final residual = 8.2714e-07, No Iterations 32
time step continuity errors : sum local = 2.26309e-17, global = -2.60863e-20, cumulative = -3.28099e-18
Pressure gradient source: uncorrected Ubar = 1.00001, pressure gradient = 0.31736
ExecutionTime = 7.81 s  ClockTime = 7 s

Courant Number mean: 0.250003 max: 0.275198
Time = 0.215

PIMPLE: iteration 1
GAMG:  Solving for p, Initial residual = 0.5467, Final residual = 0.0111277, No Iterations 1
time step continuity errors : sum local = 2.27642e-17, global = -4.85724e-21, cumulative = -3.28585e-18
Pressure gradient source: uncorrected Ubar = 1, pressure gradient = 0.316283
GAMG:  Solving for p, Initial residual = 0.399048, Final residual = 0.00884619, No Iterations 1
time step continuity errors : sum local = 2.22948e-17, global = -6.2221e-20, cumulative = -3.34807e-18
Pressure gradient source: uncorrected Ubar = 1.00001, pressure gradient = 0.314975
GAMG:  Solving for p, Initial residual = 0.394609, Final residual = 8.67937e-07, No Iterations 27
time step continuity errors : sum local = 2.21284e-17, global = -9.95532e-20, cumulative = -3.44763e-18
Pressure gradient source: uncorrected Ubar = 1.00001, pressure gradient = 0.314148
ExecutionTime = 7.99 s  ClockTime = 8 s

Courant Number mean: 0.250003 max: 0.275524
Time = 0.22

PIMPLE: iteration 1
GAMG:  Solving for p, Initial residual = 0.548698, Final residual = 0.0118106, No Iterations 1
time step continuity errors : sum local = 2.2072e-17, global = -1.06929e-19, cumulative = -3.55455e-18
Pressure gradient source: uncorrected Ubar = 1, pressure gradient = 0.313109
GAMG:  Solving for p, Initial residual = 0.396153, Final residual = 0.00854887, No Iterations 1
time step continuity errors : sum local = 2.19854e-17, global = -1.45075e-20, cumulative = -3.56906e-18
Pressure gradient source: uncorrected Ubar = 1.00001, pressure gradient = 0.311848
GAMG:  Solving for p, Initial residual = 0.388933, Final residual = 4.08661e-07, No Iterations 24
time step continuity errors : sum local = 2.25685e-17, global = -9.91995e-20, cumulative = -3.66826e-18
Pressure gradient source: uncorrected Ubar = 1.00001, pressure gradient = 0.311049
ExecutionTime = 8.15 s  ClockTime = 8 s

Courant Number mean: 0.250003 max: 0.275847
Time = 0.225

PIMPLE: iteration 1
GAMG:  Solving for p, Initial residual = 0.531007, Final residual = 0.0116281, No Iterations 1
time step continuity errors : sum local = 2.24466e-17, global = -1.29829e-19, cumulative = -3.79809e-18
Pressure gradient source: uncorrected Ubar = 1, pressure gradient = 0.310047
GAMG:  Solving for p, Initial residual = 0.402732, Final residual = 0.00883118, No Iterations 1
time step continuity errors : sum local = 2.20362e-17, global = 1.26001e-19, cumulative = -3.67209e-18
Pressure gradient source: uncorrected Ubar = 1, pressure gradient = 0.308829
GAMG:  Solving for p, Initial residual = 0.394334, Final residual = 9.82516e-07, No Iterations 25
time step continuity errors : sum local = 2.27812e-17, global = 3.63998e-21, cumulative = -3.66845e-18
Pressure gradient source: uncorrected Ubar = 1.00001, pressure gradient = 0.308058
ExecutionTime = 8.32 s  ClockTime = 8 s

Courant Number mean: 0.250003 max: 0.276166
Time = 0.23

PIMPLE: iteration 1
GAMG:  Solving for p, Initial residual = 0.542837, Final residual = 0.012525, No Iterations 1
time step continuity errors : sum local = 2.25889e-17, global = 2.69318e-21, cumulative = -3.66576e-18
Pressure gradient source: uncorrected Ubar = 1, pressure gradient = 0.30709
GAMG:  Solving for p, Initial residual = 0.397, Final residual = 0.00845521, No Iterations 1
time step continuity errors : sum local = 2.25608e-17, global = -3.54388e-20, cumulative = -3.7012e-18
Pressure gradient source: uncorrected Ubar = 1, pressure gradient = 0.305914
GAMG:  Solving for p, Initial residual = 0.396163, Final residual = 5.72833e-07, No Iterations 29
time step continuity errors : sum local = 2.2291e-17, global = 6.28255e-20, cumulative = -3.63837e-18
Pressure gradient source: uncorrected Ubar = 1.00001, pressure gradient = 0.305169
ExecutionTime = 8.5 s  ClockTime = 8 s

Courant Number mean: 0.250003 max: 0.276483
Time = 0.235

PIMPLE: iteration 1
GAMG:  Solving for p, Initial residual = 0.540815, Final residual = 0.0110377, No Iterations 1
time step continuity errors : sum local = 2.19602e-17, global = 7.02323e-21, cumulative = -3.63135e-18
Pressure gradient source: uncorrected Ubar = 1, pressure gradient = 0.304233
GAMG:  Solving for p, Initial residual = 0.394139, Final residual = 0.00795238, No Iterations 1
time step continuity errors : sum local = 2.17732e-17, global = -3.06762e-20, cumulative = -3.66202e-18
Pressure gradient source: uncorrected Ubar = 1, pressure gradient = 0.303095
GAMG:  Solving for p, Initial residual = 0.384482, Final residual = 8.96077e-07, No Iterations 24
time step continuity errors : sum local = 2.17428e-17, global = -3.10932e-20, cumulative = -3.69312e-18
Pressure gradient source: uncorrected Ubar = 1.00001, pressure gradient = 0.302374
ExecutionTime = 8.66 s  ClockTime = 8 s

Courant Number mean: 0.250003 max: 0.276796
Time = 0.24

PIMPLE: iteration 1
GAMG:  Solving for p, Initial residual = 0.529762, Final residual = 0.0109199, No Iterations 1
time step continuity errors : sum local = 2.1586e-17, global = -7.40916e-20, cumulative = -3.76721e-18
Pressure gradient source: uncorrected Ubar = 1, pressure gradient = 0.301469
GAMG:  Solving for p, Initial residual = 0.39635, Final residual = 0.00766013, No Iterations 1
time step continuity errors : sum local = 2.16341e-17, global = 9.74093e-21, cumulative = -3.75747e-18
Pressure gradient source: uncorrected Ubar = 1, pressure gradient = 0.300369
GAMG:  Solving for p, Initial residual = 0.390458, Final residual = 9.87727e-07, No Iterations 28
time step continuity errors : sum local = 2.20916e-17, global = -9.91676e-20, cumulative = -3.85663e-18
Pressure gradient source: uncorrected Ubar = 1.00001, pressure gradient = 0.299671
ExecutionTime = 8.84 s  ClockTime = 8 s

Courant Number mean: 0.250003 max: 0.277107
Time = 0.245

PIMPLE: iteration 1
GAMG:  Solving for p, Initial residual = 0.529492, Final residual = 0.0126198, No Iterations 1
time step continuity errors : sum local = 2.1752e-17, global = 7.14562e-21, cumulative = -3.84949e-18
Pressure gradient source: uncorrected Ubar = 1, pressure gradient = 0.298794
GAMG:  Solving for p, Initial residual = 0.388878, Final residual = 0.00688658, No Iterations 1
time step continuity errors : sum local = 2.15087e-17, global = -9.63232e-20, cumulative = -3.94581e-18
Pressure gradient source: uncorrected Ubar = 1, pressure gradient = 0.297729
GAMG:  Solving for p, Initial residual = 0.381466, Final residual = 9.05079e-07, No Iterations 20
time step continuity errors : sum local = 2.21762e-17, global = 1.2776e-21, cumulative = -3.94453e-18
Pressure gradient source: uncorrected Ubar = 1.00001, pressure gradient = 0.297053
ExecutionTime = 8.99 s  ClockTime = 9 s

Courant Number mean: 0.250003 max: 0.277415
Time = 0.25

PIMPLE: iteration 1
GAMG:  Solving for p, Initial residual = 0.527788, Final residual = 0.0164721, No Iterations 1
time step continuity errors : sum local = 2.24121e-17, global = -7.16518e-20, cumulative = -4.01619e-18
Pressure gradient source: uncorrected Ubar = 1, pressure gradient = 0.296204
GAMG:  Solving for p, Initial residual = 0.392482, Final residual = 0.00811398, No Iterations 1
time step continuity errors : sum local = 2.2503e-17, global = 5.41754e-20, cumulative = -3.96201e-18
Pressure gradient source: uncorrected Ubar = 1, pressure gradient = 0.295172
GAMG:  Solving for p, Initial residual = 0.400388, Final residual = 7.54876e-07, No Iterations 18
time step continuity errors : sum local = 2.19522e-17, global = -2.40658e-20, cumulative = -3.98608e-18
Pressure gradient source: uncorrected Ubar = 1.00001, pressure gradient = 0.294517
ExecutionTime = 9.13 s  ClockTime = 9 s

Courant Number mean: 0.250003 max: 0.27772
Time = 0.255

PIMPLE: iteration 1
GAMG:  Solving for p, Initial residual = 0.545339, Final residual = 0.0154948, No Iterations 1
time step continuity errors : sum local = 2.23059e-17, global = -7.80184e-20, cumulative = -4.06409e-18
Pressure gradient source: uncorrected Ubar = 1, pressure gradient = 0.293694
GAMG:  Solving for p, Initial residual = 0.394554, Final residual = 0.00783972, No Iterations 1
time step continuity errors : sum local = 2.25113e-17, global = -4.31634e-20, cumulative = -4.10726e-18
Pressure gradient source: uncorrected Ubar = 1, pressure gradient = 0.292694
GAMG:  Solving for p, Initial residual = 0.397087, Final residual = 8.3782e-07, No Iterations 25
time step continuity errors : sum local = 2.19063e-17, global = -4.98828e-20, cumulative = -4.15714e-18
Pressure gradient source: uncorrected Ubar = 1.00001, pressure gradient = 0.292058
ExecutionTime = 9.29 s  ClockTime = 9 s

Courant Number mean: 0.250003 max: 0.278023
Time = 0.26

PIMPLE: iteration 1
GAMG:  Solving for p, Initial residual = 0.545038, Final residual = 0.0112627, No Iterations 1
time step continuity errors : sum local = 2.20569e-17, global = -2.92517e-20, cumulative = -4.18639e-18
Pressure gradient source: uncorrected Ubar = 1, pressure gradient = 0.29126
GAMG:  Solving for p, Initial residual = 0.404234, Final residual = 0.00885053, No Iterations 1
time step continuity errors : sum local = 2.16211e-17, global = -2.75984e-21, cumulative = -4.18915e-18
Pressure gradient source: uncorrected Ubar = 1, pressure gradient = 0.29029
GAMG:  Solving for p, Initial residual = 0.393945, Final residual = 6.25389e-07, No Iterations 26
time step continuity errors : sum local = 2.22038e-17, global = -5.785e-20, cumulative = -4.247e-18
Pressure gradient source: uncorrected Ubar = 1.00001, pressure gradient = 0.289673
ExecutionTime = 9.47 s  ClockTime = 9 s

Courant Number mean: 0.250002 max: 0.278324
Time = 0.265

PIMPLE: iteration 1
GAMG:  Solving for p, Initial residual = 0.550053, Final residual = 0.0110848, No Iterations 1
time step continuity errors : sum local = 2.17845e-17, global = -6.54971e-20, cumulative = -4.3125e-18
Pressure gradient source: uncorrected Ubar = 1, pressure gradient = 0.288898
GAMG:  Solving for p, Initial residual = 0.401173, Final residual = 0.00856029, No Iterations 1
time step continuity errors : sum local = 2.19947e-17, global = -6.92792e-20, cumulative = -4.38178e-18
Pressure gradient source: uncorrected Ubar = 1, pressure gradient = 0.287956
GAMG:  Solving for p, Initial residual = 0.386886, Final residual = 5.35318e-07, No Iterations 30
time step continuity errors : sum local = 2.1759e-17, global = -9.59549e-20, cumulative = -4.47773e-18
Pressure gradient source: uncorrected Ubar = 1.00001, pressure gradient = 0.287358
ExecutionTime = 9.66 s  ClockTime = 9 s

Courant Number mean: 0.250002 max: 0.278622
Time = 0.27

PIMPLE: iteration 1
GAMG:  Solving for p, Initial residual = 0.535878, Final residual = 0.0130832, No Iterations 1
time step continuity errors : sum local = 2.19147e-17, global = -7.91692e-20, cumulative = -4.5569e-18
Pressure gradient source: uncorrected Ubar = 1, pressure gradient = 0.286605
GAMG:  Solving for p, Initial residual = 0.386966, Final residual = 0.00763354, No Iterations 1
time step continuity errors : sum local = 2.173e-17, global = -1.24454e-20, cumulative = -4.56935e-18
Pressure gradient source: uncorrected Ubar = 1, pressure gradient = 0.285691
GAMG:  Solving for p, Initial residual = 0.379503, Final residual = 6.8829e-07, No Iterations 33
time step continuity errors : sum local = 2.22272e-17, global = 2.36086e-20, cumulative = -4.54574e-18
Pressure gradient source: uncorrected Ubar = 1, pressure gradient = 0.285109
ExecutionTime = 9.86 s  ClockTime = 9 s

Courant Number mean: 0.250002 max: 0.278917
Time = 0.275

PIMPLE: iteration 1
GAMG:  Solving for p, Initial residual = 0.536755, Final residual = 0.0112896, No Iterations 1
time step continuity errors : sum local = 2.21707e-17, global = -7.12953e-20, cumulative = -4.61703e-18
Pressure gradient source: uncorrected Ubar = 1, pressure gradient = 0.284378
GAMG:  Solving for p, Initial residual = 0.394421, Final residual = 0.00863827, No Iterations 1
time step continuity errors : sum local = 2.16111e-17, global = -5.21029e-20, cumulative = -4.66914e-18
Pressure gradient source: uncorrected Ubar = 1, pressure gradient = 0.283489
GAMG:  Solving for p, Initial residual = 0.399025, Final residual = 7.95665e-07, No Iterations 16
time step continuity errors : sum local = 2.21695e-17, global = -9.60462e-20, cumulative = -4.76518e-18
Pressure gradient source: uncorrected Ubar = 1, pressure gradient = 0.282924
ExecutionTime = 9.98 s  ClockTime = 10 s

Courant Number mean: 0.250002 max: 0.279211
Time = 0.28

PIMPLE: iteration 1
GAMG:  Solving for p, Initial residual = 0.547549, Final residual = 0.0111974, No Iterations 1
time step continuity errors : sum local = 2.2155e-17, global = -2.41296e-20, cumulative = -4.78931e-18
Pressure gradient source: uncorrected Ubar = 1, pressure gradient = 0.282213
GAMG:  Solving for p, Initial residual = 0.390753, Final residual = 0.00840327, No Iterations 1
time step continuity errors : sum local = 2.22215e-17, global = -7.00318e-20, cumulative = -4.85935e-18
Pressure gradient source: uncorrected Ubar = 1, pressure gradient = 0.281349
GAMG:  Solving for p, Initial residual = 0.388076, Final residual = 7.55337e-07, No Iterations 21
time step continuity errors : sum local = 2.16545e-17, global = -1.56503e-20, cumulative = -4.875e-18
Pressure gradient source: uncorrected Ubar = 1, pressure gradient = 0.2808
ExecutionTime = 10.13 s  ClockTime = 10 s

Courant Number mean: 0.250002 max: 0.279502
Time = 0.285

PIMPLE: iteration 1
GAMG:  Solving for p, Initial residual = 0.531721, Final residual = 0.0127098, No Iterations 1
time step continuity errors : sum local = 2.19103e-17, global = -2.31449e-20, cumulative = -4.89814e-18
Pressure gradient source: uncorrected Ubar = 1, pressure gradient = 0.280108
GAMG:  Solving for p, Initial residual = 0.386275, Final residual = 0.00906941, No Iterations 1
time step continuity errors : sum local = 2.20366e-17, global = -1.04182e-19, cumulative = -5.00232e-18
Pressure gradient source: uncorrected Ubar = 1, pressure gradient = 0.279268
GAMG:  Solving for p, Initial residual = 0.37938, Final residual = 4.77214e-07, No Iterations 19
time step continuity errors : sum local = 2.18447e-17, global = 7.12293e-20, cumulative = -4.93109e-18
Pressure gradient source: uncorrected Ubar = 1, pressure gradient = 0.278733
ExecutionTime = 10.27 s  ClockTime = 10 s

Courant Number mean: 0.250002 max: 0.279791
Time = 0.29

PIMPLE: iteration 1
GAMG:  Solving for p, Initial residual = 0.538664, Final residual = 0.0110688, No Iterations 1
time step continuity errors : sum local = 2.18096e-17, global = -6.27816e-20, cumulative = -4.99388e-18
Pressure gradient source: uncorrected Ubar = 1, pressure gradient = 0.278061
GAMG:  Solving for p, Initial residual = 0.395851, Final residual = 0.00814992, No Iterations 1
time step continuity errors : sum local = 2.18423e-17, global = 1.59565e-20, cumulative = -4.97792e-18
Pressure gradient source: uncorrected Ubar = 1, pressure gradient = 0.277243
GAMG:  Solving for p, Initial residual = 0.390341, Final residual = 9.37988e-07, No Iterations 18
time step continuity errors : sum local = 2.20156e-17, global = -3.22479e-20, cumulative = -5.01017e-18
Pressure gradient source: uncorrected Ubar = 1, pressure gradient = 0.276722
ExecutionTime = 10.4 s  ClockTime = 10 s

Courant Number mean: 0.250002 max: 0.280078
Time = 0.295

PIMPLE: iteration 1
GAMG:  Solving for p, Initial residual = 0.545071, Final residual = 0.0117995, No Iterations 1
time step continuity errors : sum local = 2.23162e-17, global = 2.32335e-20, cumulative = -4.98693e-18
Pressure gradient source: uncorrected Ubar = 1, pressure gradient = 0.276067
GAMG:  Solving for p, Initial residual = 0.396232, Final residual = 0.00872183, No Iterations 1
time step continuity errors : sum local = 2.21657e-17, global = -5.26942e-20, cumulative = -5.03963e-18
Pressure gradient source: uncorrected Ubar = 1, pressure gradient = 0.275271
GAMG:  Solving for p, Initial residual = 0.381196, Final residual = 8.96288e-07, No Iterations 18
time step continuity errors : sum local = 2.19512e-17, global = 8.02973e-20, cumulative = -4.95933e-18
Pressure gradient source: uncorrected Ubar = 1, pressure gradient = 0.274764
ExecutionTime = 10.54 s  ClockTime = 10 s

Courant Number mean: 0.250002 max: 0.280363
Time = 0.3

PIMPLE: iteration 1
GAMG:  Solving for p, Initial residual = 0.544946, Final residual = 0.0118876, No Iterations 1
time step continuity errors : sum local = 2.17794e-17, global = 7.44161e-20, cumulative = -4.88491e-18
Pressure gradient source: uncorrected Ubar = 1, pressure gradient = 0.274126
GAMG:  Solving for p, Initial residual = 0.391913, Final residual = 0.00950675, No Iterations 1
time step continuity errors : sum local = 2.18789e-17, global = -8.93895e-20, cumulative = -4.9743e-18
Pressure gradient source: uncorrected Ubar = 1, pressure gradient = 0.273351
GAMG:  Solving for p, Initial residual = 0.381273, Final residual = 9.00724e-07, No Iterations 29
time step continuity errors : sum local = 2.20083e-17, global = -1.23607e-19, cumulative = -5.09791e-18
Pressure gradient source: uncorrected Ubar = 1, pressure gradient = 0.272857
ExecutionTime = 10.72 s  ClockTime = 10 s

Courant Number mean: 0.250002 max: 0.280646
Time = 0.305

PIMPLE: iteration 1
GAMG:  Solving for p, Initial residual = 0.534959, Final residual = 0.0128829, No Iterations 1
time step continuity errors : sum local = 2.23086e-17, global = -1.05335e-20, cumulative = -5.10844e-18
Pressure gradient source: uncorrected Ubar = 1, pressure gradient = 0.272235
GAMG:  Solving for p, Initial residual = 0.402311, Final residual = 0.00901175, No Iterations 1
time step continuity errors : sum local = 2.12829e-17, global = -3.70807e-20, cumulative = -5.14552e-18
Pressure gradient source: uncorrected Ubar = 1, pressure gradient = 0.27148
GAMG:  Solving for p, Initial residual = 0.397135, Final residual = 8.21255e-07, No Iterations 28
time step continuity errors : sum local = 2.16879e-17, global = -9.4133e-20, cumulative = -5.23966e-18
Pressure gradient source: uncorrected Ubar = 1, pressure gradient = 0.270998
ExecutionTime = 10.9 s  ClockTime = 10 s

Courant Number mean: 0.250002 max: 0.280927
Time = 0.31

PIMPLE: iteration 1
GAMG:  Solving for p, Initial residual = 0.544961, Final residual = 0.0122066, No Iterations 1
time step continuity errors : sum local = 2.22277e-17, global = 6.76127e-21, cumulative = -5.2329e-18
Pressure gradient source: uncorrected Ubar = 1, pressure gradient = 0.270392
GAMG:  Solving for p, Initial residual = 0.390928, Final residual = 0.00889201, No Iterations 1
time step continuity errors : sum local = 2.22676e-17, global = -1.07981e-19, cumulative = -5.34088e-18
Pressure gradient source: uncorrected Ubar = 1, pressure gradient = 0.269656
GAMG:  Solving for p, Initial residual = 0.396669, Final residual = 9.43346e-07, No Iterations 36
time step continuity errors : sum local = 2.1809e-17, global = 7.33974e-20, cumulative = -5.26748e-18
Pressure gradient source: uncorrected Ubar = 1, pressure gradient = 0.269186
ExecutionTime = 11.12 s  ClockTime = 11 s

Courant Number mean: 0.250002 max: 0.281206
Time = 0.315

PIMPLE: iteration 1
GAMG:  Solving for p, Initial residual = 0.535081, Final residual = 0.0129891, No Iterations 1
time step continuity errors : sum local = 2.2482e-17, global = -9.31128e-20, cumulative = -5.36059e-18
Pressure gradient source: uncorrected Ubar = 1, pressure gradient = 0.268595
GAMG:  Solving for p, Initial residual = 0.402267, Final residual = 0.0126461, No Iterations 1
time step continuity errors : sum local = 2.25776e-17, global = -9.94187e-20, cumulative = -5.46001e-18
Pressure gradient source: uncorrected Ubar = 1, pressure gradient = 0.267877
GAMG:  Solving for p, Initial residual = 0.397622, Final residual = 6.41953e-07, No Iterations 18
time step continuity errors : sum local = 2.2107e-17, global = -7.61657e-20, cumulative = -5.53618e-18
Pressure gradient source: uncorrected Ubar = 1, pressure gradient = 0.267418
ExecutionTime = 11.25 s  ClockTime = 11 s

Courant Number mean: 0.250002 max: 0.281483
Time = 0.32

PIMPLE: iteration 1
GAMG:  Solving for p, Initial residual = 0.546321, Final residual = 0.011146, No Iterations 1
time step continuity errors : sum local = 2.17398e-17, global = -2.48344e-20, cumulative = -5.56101e-18
Pressure gradient source: uncorrected Ubar = 1, pressure gradient = 0.266842
GAMG:  Solving for p, Initial residual = 0.395753, Final residual = 0.010017, No Iterations 1
time step continuity errors : sum local = 2.17599e-17, global = -4.0841e-20, cumulative = -5.60185e-18
Pressure gradient source: uncorrected Ubar = 1, pressure gradient = 0.266141
GAMG:  Solving for p, Initial residual = 0.387941, Final residual = 8.8501e-07, No Iterations 30
time step continuity errors : sum local = 2.20785e-17, global = -1.47442e-20, cumulative = -5.6166e-18
Pressure gradient source: uncorrected Ubar = 1, pressure gradient = 0.265694
ExecutionTime = 11.45 s  ClockTime = 11 s

Courant Number mean: 0.250002 max: 0.281758
Time = 0.325

PIMPLE: iteration 1
GAMG:  Solving for p, Initial residual = 0.55091, Final residual = 0.0111326, No Iterations 1
time step continuity errors : sum local = 2.21587e-17, global = -1.08012e-19, cumulative = -5.72461e-18
Pressure gradient source: uncorrected Ubar = 1, pressure gradient = 0.265132
GAMG:  Solving for p, Initial residual = 0.41173, Final residual = 0.00988745, No Iterations 1
time step continuity errors : sum local = 2.21283e-17, global = 4.23058e-20, cumulative = -5.6823e-18
Pressure gradient source: uncorrected Ubar = 1, pressure gradient = 0.264447
GAMG:  Solving for p, Initial residual = 0.402545, Final residual = 9.35926e-07, No Iterations 28
time step continuity errors : sum local = 2.20678e-17, global = 4.23089e-20, cumulative = -5.63999e-18
Pressure gradient source: uncorrected Ubar = 1, pressure gradient = 0.264011
ExecutionTime = 11.63 s  ClockTime = 11 s

Courant Number mean: 0.250002 max: 0.282032
Time = 0.33

PIMPLE: iteration 1
GAMG:  Solving for p, Initial residual = 0.551421, Final residual = 0.0125822, No Iterations 1
time step continuity errors : sum local = 2.24583e-17, global = -2.38523e-20, cumulative = -5.66385e-18
Pressure gradient source: uncorrected Ubar = 1, pressure gradient = 0.263462
GAMG:  Solving for p, Initial residual = 0.395882, Final residual = 0.00677129, No Iterations 1
time step continuity errors : sum local = 2.18611e-17, global = -1.08606e-19, cumulative = -5.77245e-18
Pressure gradient source: uncorrected Ubar = 1, pressure gradient = 0.262794
GAMG:  Solving for p, Initial residual = 0.400134, Final residual = 6.66745e-07, No Iterations 18
time step continuity errors : sum local = 2.22342e-17, global = -5.40542e-20, cumulative = -5.82651e-18
Pressure gradient source: uncorrected Ubar = 1, pressure gradient = 0.262367
ExecutionTime = 11.76 s  ClockTime = 11 s

Courant Number mean: 0.250002 max: 0.282304
Time = 0.335

PIMPLE: iteration 1
GAMG:  Solving for p, Initial residual = 0.551242, Final residual = 0.0113275, No Iterations 1
time step continuity errors : sum local = 2.21364e-17, global = -3.11536e-20, cumulative = -5.85766e-18
Pressure gradient source: uncorrected Ubar = 1, pressure gradient = 0.261831
GAMG:  Solving for p, Initial residual = 0.4062, Final residual = 0.00893167, No Iterations 1
time step continuity errors : sum local = 2.23147e-17, global = 6.24764e-20, cumulative = -5.79518e-18
Pressure gradient source: uncorrected Ubar = 1, pressure gradient = 0.261179
GAMG:  Solving for p, Initial residual = 0.399637, Final residual = 5.54033e-07, No Iterations 33
time step continuity errors : sum local = 2.19366e-17, global = -8.98834e-20, cumulative = -5.88507e-18
Pressure gradient source: uncorrected Ubar = 1, pressure gradient = 0.260762
ExecutionTime = 11.97 s  ClockTime = 11 s

Courant Number mean: 0.250002 max: 0.282574
Time = 0.34

PIMPLE: iteration 1
GAMG:  Solving for p, Initial residual = 0.540614, Final residual = 0.0111771, No Iterations 1
time step continuity errors : sum local = 2.26031e-17, global = 8.8983e-20, cumulative = -5.79608e-18
Pressure gradient source: uncorrected Ubar = 1, pressure gradient = 0.260238
GAMG:  Solving for p, Initial residual = 0.39786, Final residual = 0.00925601, No Iterations 1
time step continuity errors : sum local = 2.26837e-17, global = -5.81066e-20, cumulative = -5.85419e-18
Pressure gradient source: uncorrected Ubar = 1, pressure gradient = 0.2596
GAMG:  Solving for p, Initial residual = 0.404874, Final residual = 5.9512e-07, No Iterations 26
time step continuity errors : sum local = 2.22754e-17, global = -8.21452e-21, cumulative = -5.8624e-18
Pressure gradient source: uncorrected Ubar = 1, pressure gradient = 0.259193
ExecutionTime = 12.14 s  ClockTime = 12 s

Courant Number mean: 0.250002 max: 0.282843
Time = 0.345

PIMPLE: iteration 1
GAMG:  Solving for p, Initial residual = 0.556137, Final residual = 0.0120357, No Iterations 1
time step continuity errors : sum local = 2.23229e-17, global = -9.68314e-20, cumulative = -5.95924e-18
Pressure gradient source: uncorrected Ubar = 1, pressure gradient = 0.258681
GAMG:  Solving for p, Initial residual = 0.400857, Final residual = 0.00921636, No Iterations 1
time step continuity errors : sum local = 2.24891e-17, global = -1.50972e-19, cumulative = -6.11021e-18
Pressure gradient source: uncorrected Ubar = 1, pressure gradient = 0.258058
GAMG:  Solving for p, Initial residual = 0.399175, Final residual = 5.62744e-07, No Iterations 24
time step continuity errors : sum local = 2.15264e-17, global = -9.90461e-21, cumulative = -6.12011e-18
Pressure gradient source: uncorrected Ubar = 1, pressure gradient = 0.25766
ExecutionTime = 12.3 s  ClockTime = 12 s

Courant Number mean: 0.250002 max: 0.28311
Time = 0.35

PIMPLE: iteration 1
GAMG:  Solving for p, Initial residual = 0.537466, Final residual = 0.0110792, No Iterations 1
time step continuity errors : sum local = 2.15085e-17, global = 1.14121e-19, cumulative = -6.00599e-18
Pressure gradient source: uncorrected Ubar = 1, pressure gradient = 0.257159
GAMG:  Solving for p, Initial residual = 0.39541, Final residual = 0.0084198, No Iterations 1
time step continuity errors : sum local = 2.12253e-17, global = 5.53469e-20, cumulative = -5.95065e-18
Pressure gradient source: uncorrected Ubar = 1, pressure gradient = 0.25655
GAMG:  Solving for p, Initial residual = 0.392664, Final residual = 9.70383e-07, No Iterations 26
time step continuity errors : sum local = 2.16742e-17, global = -2.75411e-20, cumulative = -5.97819e-18
Pressure gradient source: uncorrected Ubar = 1, pressure gradient = 0.256161
ExecutionTime = 12.48 s  ClockTime = 12 s

Courant Number mean: 0.250002 max: 0.283376
Time = 0.355

PIMPLE: iteration 1
GAMG:  Solving for p, Initial residual = 0.53361, Final residual = 0.0128061, No Iterations 1
time step continuity errors : sum local = 2.15848e-17, global = 1.83582e-21, cumulative = -5.97635e-18
Pressure gradient source: uncorrected Ubar = 1, pressure gradient = 0.255671
GAMG:  Solving for p, Initial residual = 0.394158, Final residual = 0.00805133, No Iterations 1
time step continuity errors : sum local = 2.13994e-17, global = -1.34894e-21, cumulative = -5.9777e-18
Pressure gradient source: uncorrected Ubar = 1, pressure gradient = 0.255075
GAMG:  Solving for p, Initial residual = 0.389289, Final residual = 9.62788e-07, No Iterations 24
time step continuity errors : sum local = 2.13014e-17, global = 2.62494e-20, cumulative = -5.95145e-18
Pressure gradient source: uncorrected Ubar = 1, pressure gradient = 0.254694
ExecutionTime = 12.64 s  ClockTime = 12 s

Courant Number mean: 0.250001 max: 0.28364
Time = 0.36

PIMPLE: iteration 1
GAMG:  Solving for p, Initial residual = 0.545073, Final residual = 0.0125492, No Iterations 1
time step continuity errors : sum local = 2.13619e-17, global = -8.61524e-20, cumulative = -6.0376e-18
Pressure gradient source: uncorrected Ubar = 1, pressure gradient = 0.254215
GAMG:  Solving for p, Initial residual = 0.392136, Final residual = 0.00804546, No Iterations 1
time step continuity errors : sum local = 2.15033e-17, global = 1.99056e-20, cumulative = -6.0177e-18
Pressure gradient source: uncorrected Ubar = 1, pressure gradient = 0.253632
GAMG:  Solving for p, Initial residual = 0.383062, Final residual = 5.86359e-07, No Iterations 30
time step continuity errors : sum local = 2.18978e-17, global = -7.16449e-21, cumulative = -6.02486e-18
Pressure gradient source: uncorrected Ubar = 1, pressure gradient = 0.25326
ExecutionTime = 12.83 s  ClockTime = 12 s

Courant Number mean: 0.250001 max: 0.283902
Time = 0.365

PIMPLE: iteration 1
GAMG:  Solving for p, Initial residual = 0.524152, Final residual = 0.0117527, No Iterations 1
time step continuity errors : sum local = 2.16943e-17, global = 7.706e-20, cumulative = -5.9478e-18
Pressure gradient source: uncorrected Ubar = 1, pressure gradient = 0.252791
GAMG:  Solving for p, Initial residual = 0.39815, Final residual = 0.00922809, No Iterations 1
time step continuity errors : sum local = 2.17993e-17, global = -3.25486e-20, cumulative = -5.98035e-18
Pressure gradient source: uncorrected Ubar = 1, pressure gradient = 0.252221
GAMG:  Solving for p, Initial residual = 0.392771, Final residual = 9.69503e-07, No Iterations 29
time step continuity errors : sum local = 2.15381e-17, global = 9.68855e-20, cumulative = -5.88346e-18
Pressure gradient source: uncorrected Ubar = 1, pressure gradient = 0.251856
ExecutionTime = 13.02 s  ClockTime = 13 s

Courant Number mean: 0.250001 max: 0.284163
Time = 0.37

PIMPLE: iteration 1
GAMG:  Solving for p, Initial residual = 0.541993, Final residual = 0.0114085, No Iterations 1
time step continuity errors : sum local = 2.14252e-17, global = -2.72254e-20, cumulative = -5.91069e-18
Pressure gradient source: uncorrected Ubar = 1, pressure gradient = 0.251397
GAMG:  Solving for p, Initial residual = 0.399909, Final residual = 0.00876915, No Iterations 1
time step continuity errors : sum local = 2.14025e-17, global = -8.39049e-20, cumulative = -5.99459e-18
Pressure gradient source: uncorrected Ubar = 1, pressure gradient = 0.250838
GAMG:  Solving for p, Initial residual = 0.396635, Final residual = 8.7851e-07, No Iterations 20
time step continuity errors : sum local = 2.15172e-17, global = -5.03046e-20, cumulative = -6.0449e-18
Pressure gradient source: uncorrected Ubar = 1, pressure gradient = 0.250481
ExecutionTime = 13.17 s  ClockTime = 13 s

Courant Number mean: 0.250001 max: 0.284423
Time = 0.375

PIMPLE: iteration 1
GAMG:  Solving for p, Initial residual = 0.548446, Final residual = 0.0136217, No Iterations 1
time step continuity errors : sum local = 2.16485e-17, global = -8.40018e-20, cumulative = -6.1289e-18
Pressure gradient source: uncorrected Ubar = 1, pressure gradient = 0.250032
GAMG:  Solving for p, Initial residual = 0.400691, Final residual = 0.00764393, No Iterations 1
time step continuity errors : sum local = 2.14832e-17, global = 1.06909e-19, cumulative = -6.02199e-18
Pressure gradient source: uncorrected Ubar = 1, pressure gradient = 0.249485
GAMG:  Solving for p, Initial residual = 0.395059, Final residual = 7.84306e-07, No Iterations 22
time step continuity errors : sum local = 2.19904e-17, global = 1.90971e-20, cumulative = -6.0029e-18
Pressure gradient source: uncorrected Ubar = 1, pressure gradient = 0.249135
ExecutionTime = 13.32 s  ClockTime = 13 s

Courant Number mean: 0.250001 max: 0.284681
Time = 0.38

PIMPLE: iteration 1
GAMG:  Solving for p, Initial residual = 0.543986, Final residual = 0.0128841, No Iterations 1
time step continuity errors : sum local = 2.18817e-17, global = -9.72256e-20, cumulative = -6.10012e-18
Pressure gradient source: uncorrected Ubar = 1, pressure gradient = 0.248695
GAMG:  Solving for p, Initial residual = 0.411118, Final residual = 0.00902504, No Iterations 1
time step continuity errors : sum local = 2.19313e-17, global = 2.18174e-20, cumulative = -6.0783e-18
Pressure gradient source: uncorrected Ubar = 1, pressure gradient = 0.248159
GAMG:  Solving for p, Initial residual = 0.403519, Final residual = 6.34575e-07, No Iterations 20
time step continuity errors : sum local = 2.17024e-17, global = -6.42175e-20, cumulative = -6.14252e-18
Pressure gradient source: uncorrected Ubar = 1, pressure gradient = 0.247817
ExecutionTime = 13.47 s  ClockTime = 13 s

Courant Number mean: 0.250001 max: 0.284938
Time = 0.385

PIMPLE: iteration 1
GAMG:  Solving for p, Initial residual = 0.555232, Final residual = 0.0128371, No Iterations 1
time step continuity errors : sum local = 2.16668e-17, global = 1.1879e-19, cumulative = -6.02373e-18
Pressure gradient source: uncorrected Ubar = 1, pressure gradient = 0.247385
GAMG:  Solving for p, Initial residual = 0.410012, Final residual = 0.0082496, No Iterations 1
time step continuity errors : sum local = 2.15769e-17, global = -8.42147e-20, cumulative = -6.10795e-18
Pressure gradient source: uncorrected Ubar = 1, pressure gradient = 0.246861
GAMG:  Solving for p, Initial residual = 0.401741, Final residual = 5.8413e-07, No Iterations 23
time step continuity errors : sum local = 2.20427e-17, global = -5.69729e-22, cumulative = -6.10852e-18
Pressure gradient source: uncorrected Ubar = 1, pressure gradient = 0.246525
ExecutionTime = 13.62 s  ClockTime = 13 s

Courant Number mean: 0.250001 max: 0.285194
Time = 0.39

PIMPLE: iteration 1
GAMG:  Solving for p, Initial residual = 0.542592, Final residual = 0.00993294, No Iterations 1
time step continuity errors : sum local = 2.20695e-17, global = -8.69898e-20, cumulative = -6.19551e-18
Pressure gradient source: uncorrected Ubar = 1, pressure gradient = 0.246102
GAMG:  Solving for p, Initial residual = 0.412733, Final residual = 0.0104165, No Iterations 1
time step continuity errors : sum local = 2.17982e-17, global = -2.93601e-20, cumulative = -6.22487e-18
Pressure gradient source: uncorrected Ubar = 1, pressure gradient = 0.245588
GAMG:  Solving for p, Initial residual = 0.417394, Final residual = 9.94781e-07, No Iterations 26
time step continuity errors : sum local = 2.25729e-17, global = -4.059e-20, cumulative = -6.26546e-18
Pressure gradient source: uncorrected Ubar = 1, pressure gradient = 0.245259
ExecutionTime = 13.8 s  ClockTime = 13 s

Courant Number mean: 0.250001 max: 0.285448
Time = 0.395

PIMPLE: iteration 1
GAMG:  Solving for p, Initial residual = 0.563578, Final residual = 0.0124116, No Iterations 1
time step continuity errors : sum local = 2.24247e-17, global = 5.17674e-20, cumulative = -6.21369e-18
Pressure gradient source: uncorrected Ubar = 1, pressure gradient = 0.244845
GAMG:  Solving for p, Initial residual = 0.417497, Final residual = 0.00985684, No Iterations 1
time step continuity errors : sum local = 2.22914e-17, global = -2.55787e-20, cumulative = -6.23927e-18
Pressure gradient source: uncorrected Ubar = 1, pressure gradient = 0.244341
GAMG:  Solving for p, Initial residual = 0.414076, Final residual = 3.7544e-07, No Iterations 24
time step continuity errors : sum local = 2.22182e-17, global = -1.14331e-19, cumulative = -6.3536e-18
Pressure gradient source: uncorrected Ubar = 1, pressure gradient = 0.244018
ExecutionTime = 13.96 s  ClockTime = 13 s

Courant Number mean: 0.250001 max: 0.285701
Time = 0.4

PIMPLE: iteration 1
GAMG:  Solving for p, Initial residual = 0.56255, Final residual = 0.0117644, No Iterations 1
time step continuity errors : sum local = 2.19873e-17, global = -9.88355e-20, cumulative = -6.45243e-18
Pressure gradient source: uncorrected Ubar = 1, pressure gradient = 0.243612
GAMG:  Solving for p, Initial residual = 0.429421, Final residual = 0.0089521, No Iterations 1
time step continuity errors : sum local = 2.1618e-17, global = -3.62201e-20, cumulative = -6.48865e-18
Pressure gradient source: uncorrected Ubar = 1, pressure gradient = 0.243118
GAMG:  Solving for p, Initial residual = 0.422756, Final residual = 7.98228e-07, No Iterations 27
time step continuity errors : sum local = 2.14015e-17, global = -1.18008e-20, cumulative = -6.50045e-18
Pressure gradient source: uncorrected Ubar = 1, pressure gradient = 0.242801
ExecutionTime = 14.14 s  ClockTime = 14 s

Courant Number mean: 0.250001 max: 0.285953
Time = 0.405

PIMPLE: iteration 1
GAMG:  Solving for p, Initial residual = 0.546053, Final residual = 0.0119884, No Iterations 1
time step continuity errors : sum local = 2.14603e-17, global = -8.93152e-20, cumulative = -6.58977e-18
Pressure gradient source: uncorrected Ubar = 1, pressure gradient = 0.242403
GAMG:  Solving for p, Initial residual = 0.416805, Final residual = 0.00696022, No Iterations 1
time step continuity errors : sum local = 2.11206e-17, global = 2.70552e-20, cumulative = -6.56271e-18
Pressure gradient source: uncorrected Ubar = 1, pressure gradient = 0.241918
GAMG:  Solving for p, Initial residual = 0.406885, Final residual = 7.87399e-07, No Iterations 20
time step continuity errors : sum local = 2.17779e-17, global = -2.39185e-20, cumulative = -6.58663e-18
Pressure gradient source: uncorrected Ubar = 1, pressure gradient = 0.241608
ExecutionTime = 14.28 s  ClockTime = 14 s

Courant Number mean: 0.250001 max: 0.286203
Time = 0.41

PIMPLE: iteration 1
GAMG:  Solving for p, Initial residual = 0.543748, Final residual = 0.0139262, No Iterations 1
time step continuity errors : sum local = 2.19509e-17, global = 8.99578e-20, cumulative = -6.49667e-18
Pressure gradient source: uncorrected Ubar = 1, pressure gradient = 0.241217
[...]
Pressure gradient source: uncorrected Ubar = 1, pressure gradient = 0.11998
ExecutionTime = 489.4 s  ClockTime = 489 s

Courant Number mean: 0.25 max: 0.374918
Time = 14.9

PIMPLE: iteration 1
GAMG:  Solving for p, Initial residual = 0.541077, Final residual = 0.013567, No Iterations 1
time step continuity errors : sum local = 1.88467e-17, global = -5.98857e-20, cumulative = -1.92377e-16
Pressure gradient source: uncorrected Ubar = 1, pressure gradient = 0.11998
GAMG:  Solving for p, Initial residual = 0.40579, Final residual = 0.00867206, No Iterations 1
time step continuity errors : sum local = 1.86258e-17, global = 1.04097e-19, cumulative = -1.92272e-16
Pressure gradient source: uncorrected Ubar = 1, pressure gradient = 0.11998
GAMG:  Solving for p, Initial residual = 0.405904, Final residual = 7.76674e-07, No Iterations 25
time step continuity errors : sum local = 1.89463e-17, global = 2.1039e-20, cumulative = -1.92251e-16
Pressure gradient source: uncorrected Ubar = 1, pressure gradient = 0.11998
ExecutionTime = 489.57 s  ClockTime = 489 s

Courant Number mean: 0.25 max: 0.374918
Time = 14.905

PIMPLE: iteration 1
GAMG:  Solving for p, Initial residual = 0.553204, Final residual = 0.0110574, No Iterations 1
time step continuity errors : sum local = 1.88834e-17, global = -5.60458e-20, cumulative = -1.92307e-16
Pressure gradient source: uncorrected Ubar = 1, pressure gradient = 0.11998
GAMG:  Solving for p, Initial residual = 0.406118, Final residual = 0.00837258, No Iterations 1
time step continuity errors : sum local = 1.87524e-17, global = -9.70774e-20, cumulative = -1.92405e-16
Pressure gradient source: uncorrected Ubar = 1, pressure gradient = 0.11998
GAMG:  Solving for p, Initial residual = 0.404693, Final residual = 5.63168e-07, No Iterations 27
time step continuity errors : sum local = 1.87206e-17, global = -1.02943e-19, cumulative = -1.92507e-16
Pressure gradient source: uncorrected Ubar = 1, pressure gradient = 0.11998
ExecutionTime = 489.75 s  ClockTime = 489 s

Courant Number mean: 0.25 max: 0.374918
Time = 14.91

PIMPLE: iteration 1
GAMG:  Solving for p, Initial residual = 0.548429, Final residual = 0.0116473, No Iterations 1
time step continuity errors : sum local = 1.85884e-17, global = -4.60725e-20, cumulative = -1.92554e-16
Pressure gradient source: uncorrected Ubar = 1, pressure gradient = 0.11998
GAMG:  Solving for p, Initial residual = 0.412398, Final residual = 0.00944944, No Iterations 1
time step continuity errors : sum local = 1.86447e-17, global = 5.59452e-21, cumulative = -1.92548e-16
Pressure gradient source: uncorrected Ubar = 1, pressure gradient = 0.11998
GAMG:  Solving for p, Initial residual = 0.407565, Final residual = 8.5062e-07, No Iterations 19
time step continuity errors : sum local = 1.85825e-17, global = -2.36312e-20, cumulative = -1.92572e-16
Pressure gradient source: uncorrected Ubar = 1, pressure gradient = 0.11998
ExecutionTime = 489.89 s  ClockTime = 489 s

Courant Number mean: 0.25 max: 0.374918
Time = 14.915

PIMPLE: iteration 1
GAMG:  Solving for p, Initial residual = 0.554508, Final residual = 0.0115094, No Iterations 1
time step continuity errors : sum local = 1.87185e-17, global = -5.60847e-20, cumulative = -1.92628e-16
Pressure gradient source: uncorrected Ubar = 1, pressure gradient = 0.11998
GAMG:  Solving for p, Initial residual = 0.398607, Final residual = 0.00795475, No Iterations 1
time step continuity errors : sum local = 1.86784e-17, global = -8.95949e-20, cumulative = -1.92717e-16
Pressure gradient source: uncorrected Ubar = 1, pressure gradient = 0.11998
GAMG:  Solving for p, Initial residual = 0.394895, Final residual = 7.10032e-07, No Iterations 31
time step continuity errors : sum local = 1.87335e-17, global = 7.63336e-20, cumulative = -1.92641e-16
Pressure gradient source: uncorrected Ubar = 1, pressure gradient = 0.11998
ExecutionTime = 490.09 s  ClockTime = 490 s

Courant Number mean: 0.25 max: 0.374919
Time = 14.92

PIMPLE: iteration 1
GAMG:  Solving for p, Initial residual = 0.540286, Final residual = 0.0123823, No Iterations 1
time step continuity errors : sum local = 1.8882e-17, global = -2.39792e-20, cumulative = -1.92665e-16
Pressure gradient source: uncorrected Ubar = 1, pressure gradient = 0.11998
GAMG:  Solving for p, Initial residual = 0.411024, Final residual = 0.00819374, No Iterations 1
time step continuity errors : sum local = 1.9092e-17, global = 1.97776e-20, cumulative = -1.92645e-16
Pressure gradient source: uncorrected Ubar = 1, pressure gradient = 0.11998
GAMG:  Solving for p, Initial residual = 0.412025, Final residual = 6.17333e-07, No Iterations 36
time step continuity errors : sum local = 1.86362e-17, global = -8.58716e-20, cumulative = -1.92731e-16
Pressure gradient source: uncorrected Ubar = 1, pressure gradient = 0.11998
ExecutionTime = 490.31 s  ClockTime = 490 s

Courant Number mean: 0.25 max: 0.374919
Time = 14.925

PIMPLE: iteration 1
GAMG:  Solving for p, Initial residual = 0.540647, Final residual = 0.0112121, No Iterations 1
time step continuity errors : sum local = 1.85563e-17, global = 1.59696e-20, cumulative = -1.92715e-16
Pressure gradient source: uncorrected Ubar = 1, pressure gradient = 0.11998
GAMG:  Solving for p, Initial residual = 0.402477, Final residual = 0.00872522, No Iterations 1
time step continuity errors : sum local = 1.86883e-17, global = 8.57709e-20, cumulative = -1.92629e-16
Pressure gradient source: uncorrected Ubar = 1, pressure gradient = 0.11998
GAMG:  Solving for p, Initial residual = 0.395036, Final residual = 8.91049e-07, No Iterations 25
time step continuity errors : sum local = 1.87766e-17, global = -8.78705e-20, cumulative = -1.92717e-16
Pressure gradient source: uncorrected Ubar = 1, pressure gradient = 0.11998
ExecutionTime = 490.47 s  ClockTime = 490 s

Courant Number mean: 0.25 max: 0.374919
Time = 14.93

PIMPLE: iteration 1
GAMG:  Solving for p, Initial residual = 0.541528, Final residual = 0.0129569, No Iterations 1
time step continuity errors : sum local = 1.82213e-17, global = -8.02528e-20, cumulative = -1.92797e-16
Pressure gradient source: uncorrected Ubar = 1, pressure gradient = 0.11998
GAMG:  Solving for p, Initial residual = 0.402009, Final residual = 0.00905549, No Iterations 1
time step continuity errors : sum local = 1.8535e-17, global = -4.43848e-21, cumulative = -1.92802e-16
Pressure gradient source: uncorrected Ubar = 1, pressure gradient = 0.11998
GAMG:  Solving for p, Initial residual = 0.399754, Final residual = 8.60028e-07, No Iterations 27
time step continuity errors : sum local = 1.88512e-17, global = 1.15406e-21, cumulative = -1.92801e-16
Pressure gradient source: uncorrected Ubar = 1, pressure gradient = 0.11998
ExecutionTime = 490.65 s  ClockTime = 490 s

Courant Number mean: 0.25 max: 0.374919
Time = 14.935

PIMPLE: iteration 1
GAMG:  Solving for p, Initial residual = 0.547306, Final residual = 0.0129297, No Iterations 1
time step continuity errors : sum local = 1.88919e-17, global = -1.03257e-19, cumulative = -1.92904e-16
Pressure gradient source: uncorrected Ubar = 1, pressure gradient = 0.11998
GAMG:  Solving for p, Initial residual = 0.407511, Final residual = 0.00793395, No Iterations 1
time step continuity errors : sum local = 1.87005e-17, global = -1.05281e-20, cumulative = -1.92914e-16
Pressure gradient source: uncorrected Ubar = 1, pressure gradient = 0.11998
GAMG:  Solving for p, Initial residual = 0.40492, Final residual = 8.44494e-07, No Iterations 24
time step continuity errors : sum local = 1.8683e-17, global = -1.33421e-19, cumulative = -1.93048e-16
Pressure gradient source: uncorrected Ubar = 1, pressure gradient = 0.11998
ExecutionTime = 490.81 s  ClockTime = 490 s

Courant Number mean: 0.25 max: 0.374919
Time = 14.94

PIMPLE: iteration 1
GAMG:  Solving for p, Initial residual = 0.550169, Final residual = 0.0120856, No Iterations 1
time step continuity errors : sum local = 1.8652e-17, global = -6.67718e-22, cumulative = -1.93049e-16
Pressure gradient source: uncorrected Ubar = 1, pressure gradient = 0.11998
GAMG:  Solving for p, Initial residual = 0.408792, Final residual = 0.00689425, No Iterations 1
time step continuity errors : sum local = 1.84978e-17, global = -6.51397e-20, cumulative = -1.93114e-16
Pressure gradient source: uncorrected Ubar = 1, pressure gradient = 0.11998
GAMG:  Solving for p, Initial residual = 0.408927, Final residual = 8.98333e-07, No Iterations 20
time step continuity errors : sum local = 1.89666e-17, global = -9.77649e-20, cumulative = -1.93211e-16
Pressure gradient source: uncorrected Ubar = 1, pressure gradient = 0.11998
ExecutionTime = 490.96 s  ClockTime = 491 s

Courant Number mean: 0.25 max: 0.374919
Time = 14.945

PIMPLE: iteration 1
GAMG:  Solving for p, Initial residual = 0.532749, Final residual = 0.00990192, No Iterations 1
time step continuity errors : sum local = 1.88335e-17, global = -5.1257e-20, cumulative = -1.93263e-16
Pressure gradient source: uncorrected Ubar = 1, pressure gradient = 0.11998
GAMG:  Solving for p, Initial residual = 0.400232, Final residual = 0.00834915, No Iterations 1
time step continuity errors : sum local = 1.85976e-17, global = -4.90178e-20, cumulative = -1.93312e-16
Pressure gradient source: uncorrected Ubar = 1, pressure gradient = 0.11998
GAMG:  Solving for p, Initial residual = 0.401367, Final residual = 7.3843e-07, No Iterations 24
time step continuity errors : sum local = 1.89999e-17, global = -4.09779e-20, cumulative = -1.93353e-16
Pressure gradient source: uncorrected Ubar = 1, pressure gradient = 0.11998
ExecutionTime = 491.12 s  ClockTime = 491 s

Courant Number mean: 0.25 max: 0.374919
Time = 14.95

PIMPLE: iteration 1
GAMG:  Solving for p, Initial residual = 0.536522, Final residual = 0.0110864, No Iterations 1
time step continuity errors : sum local = 1.89679e-17, global = 1.65275e-20, cumulative = -1.93336e-16
Pressure gradient source: uncorrected Ubar = 1, pressure gradient = 0.11998
GAMG:  Solving for p, Initial residual = 0.412336, Final residual = 0.0109491, No Iterations 1
time step continuity errors : sum local = 1.90577e-17, global = 4.73862e-20, cumulative = -1.93289e-16
Pressure gradient source: uncorrected Ubar = 1, pressure gradient = 0.11998
GAMG:  Solving for p, Initial residual = 0.410901, Final residual = 6.23507e-07, No Iterations 24
time step continuity errors : sum local = 1.86986e-17, global = -6.85716e-21, cumulative = -1.93296e-16
Pressure gradient source: uncorrected Ubar = 1, pressure gradient = 0.11998
ExecutionTime = 491.29 s  ClockTime = 491 s

Courant Number mean: 0.25 max: 0.374919
Time = 14.955

PIMPLE: iteration 1
GAMG:  Solving for p, Initial residual = 0.554626, Final residual = 0.0105655, No Iterations 1
time step continuity errors : sum local = 1.88851e-17, global = -1.02428e-19, cumulative = -1.93398e-16
Pressure gradient source: uncorrected Ubar = 1, pressure gradient = 0.11998
GAMG:  Solving for p, Initial residual = 0.396767, Final residual = 0.00985546, No Iterations 1
time step continuity errors : sum local = 1.91549e-17, global = -5.50043e-20, cumulative = -1.93453e-16
Pressure gradient source: uncorrected Ubar = 1, pressure gradient = 0.11998
GAMG:  Solving for p, Initial residual = 0.396652, Final residual = 7.52647e-07, No Iterations 28
time step continuity errors : sum local = 1.88547e-17, global = -1.62486e-20, cumulative = -1.93469e-16
Pressure gradient source: uncorrected Ubar = 1, pressure gradient = 0.11998
ExecutionTime = 491.47 s  ClockTime = 491 s

Courant Number mean: 0.25 max: 0.374919
Time = 14.96

PIMPLE: iteration 1
GAMG:  Solving for p, Initial residual = 0.534267, Final residual = 0.0126226, No Iterations 1
time step continuity errors : sum local = 1.89089e-17, global = 4.65005e-22, cumulative = -1.93469e-16
Pressure gradient source: uncorrected Ubar = 1, pressure gradient = 0.11998
GAMG:  Solving for p, Initial residual = 0.406715, Final residual = 0.00920617, No Iterations 1
time step continuity errors : sum local = 1.89408e-17, global = 6.9479e-20, cumulative = -1.93399e-16
Pressure gradient source: uncorrected Ubar = 1, pressure gradient = 0.11998
GAMG:  Solving for p, Initial residual = 0.405263, Final residual = 3.34502e-07, No Iterations 21
time step continuity errors : sum local = 1.87953e-17, global = -2.0657e-21, cumulative = -1.93401e-16
Pressure gradient source: uncorrected Ubar = 1, pressure gradient = 0.11998
ExecutionTime = 491.63 s  ClockTime = 491 s

Courant Number mean: 0.25 max: 0.374919
Time = 14.965

PIMPLE: iteration 1
GAMG:  Solving for p, Initial residual = 0.533726, Final residual = 0.0123341, No Iterations 1
time step continuity errors : sum local = 1.88163e-17, global = -5.83961e-20, cumulative = -1.9346e-16
Pressure gradient source: uncorrected Ubar = 1, pressure gradient = 0.11998
GAMG:  Solving for p, Initial residual = 0.413092, Final residual = 0.00844802, No Iterations 1
time step continuity errors : sum local = 1.85859e-17, global = 6.46641e-20, cumulative = -1.93395e-16
Pressure gradient source: uncorrected Ubar = 1, pressure gradient = 0.11998
GAMG:  Solving for p, Initial residual = 0.397445, Final residual = 7.69695e-07, No Iterations 18
time step continuity errors : sum local = 1.85565e-17, global = -6.18667e-20, cumulative = -1.93457e-16
Pressure gradient source: uncorrected Ubar = 1, pressure gradient = 0.11998
ExecutionTime = 491.76 s  ClockTime = 491 s

Courant Number mean: 0.25 max: 0.374919
Time = 14.97

PIMPLE: iteration 1
GAMG:  Solving for p, Initial residual = 0.549743, Final residual = 0.0116332, No Iterations 1
time step continuity errors : sum local = 1.86805e-17, global = -6.55977e-20, cumulative = -1.93523e-16
Pressure gradient source: uncorrected Ubar = 1, pressure gradient = 0.11998
GAMG:  Solving for p, Initial residual = 0.394754, Final residual = 0.00813975, No Iterations 1
time step continuity errors : sum local = 1.84374e-17, global = -1.06718e-19, cumulative = -1.93629e-16
Pressure gradient source: uncorrected Ubar = 1, pressure gradient = 0.11998
GAMG:  Solving for p, Initial residual = 0.399259, Final residual = 5.10871e-07, No Iterations 18
time step continuity errors : sum local = 1.90348e-17, global = -2.14476e-20, cumulative = -1.93651e-16
Pressure gradient source: uncorrected Ubar = 1, pressure gradient = 0.11998
ExecutionTime = 491.9 s  ClockTime = 491 s

Courant Number mean: 0.25 max: 0.374919
Time = 14.975

PIMPLE: iteration 1
GAMG:  Solving for p, Initial residual = 0.527545, Final residual = 0.0123146, No Iterations 1
time step continuity errors : sum local = 1.89267e-17, global = -9.63219e-21, cumulative = -1.9366e-16
Pressure gradient source: uncorrected Ubar = 1, pressure gradient = 0.11998
GAMG:  Solving for p, Initial residual = 0.409408, Final residual = 0.00984347, No Iterations 1
time step continuity errors : sum local = 1.85043e-17, global = -1.00185e-19, cumulative = -1.93761e-16
Pressure gradient source: uncorrected Ubar = 1, pressure gradient = 0.11998
GAMG:  Solving for p, Initial residual = 0.405757, Final residual = 8.55942e-07, No Iterations 27
time step continuity errors : sum local = 1.90182e-17, global = -4.3849e-22, cumulative = -1.93761e-16
Pressure gradient source: uncorrected Ubar = 1, pressure gradient = 0.11998
ExecutionTime = 492.07 s  ClockTime = 492 s

Courant Number mean: 0.25 max: 0.374919
Time = 14.98

PIMPLE: iteration 1
GAMG:  Solving for p, Initial residual = 0.541569, Final residual = 0.0119621, No Iterations 1
time step continuity errors : sum local = 1.93132e-17, global = 3.18203e-20, cumulative = -1.93729e-16
Pressure gradient source: uncorrected Ubar = 1, pressure gradient = 0.11998
GAMG:  Solving for p, Initial residual = 0.406529, Final residual = 0.0107077, No Iterations 1
time step continuity errors : sum local = 1.8903e-17, global = -9.25148e-20, cumulative = -1.93822e-16
Pressure gradient source: uncorrected Ubar = 1, pressure gradient = 0.11998
GAMG:  Solving for p, Initial residual = 0.399561, Final residual = 8.28819e-07, No Iterations 23
time step continuity errors : sum local = 1.89623e-17, global = -9.12108e-20, cumulative = -1.93913e-16
Pressure gradient source: uncorrected Ubar = 1, pressure gradient = 0.11998
ExecutionTime = 492.23 s  ClockTime = 492 s

Courant Number mean: 0.25 max: 0.374919
Time = 14.985

PIMPLE: iteration 1
GAMG:  Solving for p, Initial residual = 0.542709, Final residual = 0.01412, No Iterations 1
time step continuity errors : sum local = 1.93184e-17, global = 1.88667e-20, cumulative = -1.93894e-16
Pressure gradient source: uncorrected Ubar = 1, pressure gradient = 0.11998
GAMG:  Solving for p, Initial residual = 0.413085, Final residual = 0.0102189, No Iterations 1
time step continuity errors : sum local = 1.89657e-17, global = -5.69142e-20, cumulative = -1.93951e-16
Pressure gradient source: uncorrected Ubar = 1, pressure gradient = 0.11998
GAMG:  Solving for p, Initial residual = 0.41772, Final residual = 3.39816e-07, No Iterations 18
time step continuity errors : sum local = 1.88165e-17, global = -6.61163e-20, cumulative = -1.94017e-16
Pressure gradient source: uncorrected Ubar = 1, pressure gradient = 0.11998
ExecutionTime = 492.37 s  ClockTime = 492 s

Courant Number mean: 0.25 max: 0.374919
Time = 14.99

PIMPLE: iteration 1
GAMG:  Solving for p, Initial residual = 0.561231, Final residual = 0.00996692, No Iterations 1
time step continuity errors : sum local = 1.85124e-17, global = -1.95836e-21, cumulative = -1.94019e-16
Pressure gradient source: uncorrected Ubar = 1, pressure gradient = 0.11998
GAMG:  Solving for p, Initial residual = 0.401277, Final residual = 0.00773139, No Iterations 1
time step continuity errors : sum local = 1.849e-17, global = -9.86619e-20, cumulative = -1.94118e-16
Pressure gradient source: uncorrected Ubar = 1, pressure gradient = 0.11998
GAMG:  Solving for p, Initial residual = 0.392373, Final residual = 5.00628e-07, No Iterations 15
time step continuity errors : sum local = 1.87241e-17, global = -8.4334e-21, cumulative = -1.94126e-16
Pressure gradient source: uncorrected Ubar = 1, pressure gradient = 0.11998
ExecutionTime = 492.49 s  ClockTime = 492 s

Courant Number mean: 0.25 max: 0.374919
Time = 14.995

PIMPLE: iteration 1
GAMG:  Solving for p, Initial residual = 0.542361, Final residual = 0.0112432, No Iterations 1
time step continuity errors : sum local = 1.86668e-17, global = 6.609e-20, cumulative = -1.9406e-16
Pressure gradient source: uncorrected Ubar = 1, pressure gradient = 0.11998
GAMG:  Solving for p, Initial residual = 0.408842, Final residual = 0.00916434, No Iterations 1
time step continuity errors : sum local = 1.84929e-17, global = -3.39719e-20, cumulative = -1.94094e-16
Pressure gradient source: uncorrected Ubar = 1, pressure gradient = 0.11998
GAMG:  Solving for p, Initial residual = 0.402249, Final residual = 7.55295e-07, No Iterations 21
time step continuity errors : sum local = 1.872e-17, global = -6.38165e-21, cumulative = -1.941e-16
Pressure gradient source: uncorrected Ubar = 1, pressure gradient = 0.11998
ExecutionTime = 492.64 s  ClockTime = 492 s

Courant Number mean: 0.25 max: 0.374919
Time = 15

PIMPLE: iteration 1
GAMG:  Solving for p, Initial residual = 0.53556, Final residual = 0.0126579, No Iterations 1
time step continuity errors : sum local = 1.88303e-17, global = -9.2542e-20, cumulative = -1.94193e-16
Pressure gradient source: uncorrected Ubar = 1, pressure gradient = 0.11998
GAMG:  Solving for p, Initial residual = 0.406875, Final residual = 0.00804376, No Iterations 1
time step continuity errors : sum local = 1.8712e-17, global = -2.03656e-20, cumulative = -1.94213e-16
Pressure gradient source: uncorrected Ubar = 1, pressure gradient = 0.11998
GAMG:  Solving for p, Initial residual = 0.416956, Final residual = 8.37489e-07, No Iterations 19
time step continuity errors : sum local = 1.87015e-17, global = -5.54503e-20, cumulative = -1.94269e-16
Pressure gradient source: uncorrected Ubar = 1, pressure gradient = 0.11998
ExecutionTime = 492.9 s  ClockTime = 492 s

End

