/*---------------------------------------------------------------------------*\
| =========                 |                                                 |
| \\      /  F ield         | OpenFOAM: The Open Source CFD Toolbox           |
|  \\    /   O peration     | Version:  2112                                  |
|   \\  /    A nd           | Website:  www.openfoam.com                      |
|    \\/     M anipulation  |                                                 |
\*---------------------------------------------------------------------------*/
Build  : _14aeaf8dab-20211220 OPENFOAM=2112 version=v2112
Arch   : "LSB;label=32;scalar=64"
Exec   : pimpleFoam
Date   : Feb 04 2023
Time   : 19:04:45
Host   : dia-Precision-7920-Tower
PID    : 1468484
I/O    : uncollated
Case   : /home/corsi/OpenFOAM/corsi-v2112/run/RODOLFO/Fluid-dynamics/poiselle_exam
nProcs : 1
trapFpe: Floating point exception trapping enabled (FOAM_SIGFPE).
fileModificationChecking : Monitoring run-time modified files using timeStampMaster (fileModificationSkew 5, maxFileModificationPolls 20)
allowSystemOperations : Allowing user-supplied system call operations

// * * * * * * * * * * * * * * * * * * * * * * * * * * * * * * * * * * * * * //
Create time

Create mesh for time = 0


PIMPLE: Operating solver in PISO mode

Reading field p

Reading field U

Reading/calculating face flux field phi

Selecting incompressible transport model Newtonian
Selecting turbulence model type laminar
Selecting laminar stress model Stokes
No MRF models present

Creating finite volume options from "constant/fvOptions"

Selecting finite volume options type meanVelocityForce
    Source: momentumSource
    - selecting all cells
    - selected 25600 cell(s) with volume 0.4
    Initial pressure gradient = 0

Courant Number mean: 0 max: 0
Courant Number mean: 0 max: 0

Starting time loop

--> FOAM Warning : 
    From void Foam::timeControl::read(const Foam::dictionary&)
    in file db/functionObjects/timeControl/timeControl.C at line 131
    Reading "system/controlDict.functions.probes_object" at line 51 to 73
    Found deprecated 'outputControl'
    Use 'writeControl' with 'writeInterval'
    This keyword is 66 months old.

--> FOAM IOWarning :
    Found [v1612] 'functionObjectLibs' entry instead of 'libs' in dictionary "system/controlDict.functions.probes_object"

    This keyword is 60 months old.

Courant Number mean: 0 max: 0
Time = 0.005

PIMPLE: iteration 1
GAMG:  Solving for p, Initial residual = 0, Final residual = 0, No Iterations 0
time step continuity errors : sum local = 0, global = 0, cumulative = 0
Pressure gradient source: uncorrected Ubar = 0, pressure gradient = 457.407
GAMG:  Solving for p, Initial residual = 1, Final residual = 0.00653027, No Iterations 1
time step continuity errors : sum local = 1.52175e-17, global = -6.06385e-21, cumulative = -6.06385e-21
Pressure gradient source: uncorrected Ubar = 0.557124, pressure gradient = 202.575
GAMG:  Solving for p, Initial residual = 0.243981, Final residual = 7.04634e-07, No Iterations 11
time step continuity errors : sum local = 1.5883e-17, global = 2.37219e-20, cumulative = 1.7658e-20
Pressure gradient source: uncorrected Ubar = 0.557786, pressure gradient = 202.272
ExecutionTime = 0.59 s  ClockTime = 0 s

Courant Number mean: 0.223114 max: 0.226218
Time = 0.01

PIMPLE: iteration 1
GAMG:  Solving for p, Initial residual = 0.974462, Final residual = 0.009564, No Iterations 1
time step continuity errors : sum local = 3.93244e-17, global = -2.45391e-20, cumulative = -6.88108e-21
Pressure gradient source: uncorrected Ubar = 1.43785, pressure gradient = 1.99769
GAMG:  Solving for p, Initial residual = 0.11024, Final residual = 0.0017858, No Iterations 1
time step continuity errors : sum local = 3.2675e-17, global = 2.80711e-21, cumulative = -4.07397e-21
Pressure gradient source: uncorrected Ubar = 1.43844, pressure gradient = 1.72752
GAMG:  Solving for p, Initial residual = 0.0347267, Final residual = 7.39963e-07, No Iterations 11
time step continuity errors : sum local = 3.24556e-17, global = -8.7908e-20, cumulative = -9.1982e-20
Pressure gradient source: uncorrected Ubar = 1.43861, pressure gradient = 1.64899
ExecutionTime = 0.67 s  ClockTime = 1 s

Courant Number mean: 0.559215 max: 0.565701
Time = 0.015

PIMPLE: iteration 1
GAMG:  Solving for p, Initial residual = 0.73327, Final residual = 0.00779174, No Iterations 1
time step continuity errors : sum local = 3.41825e-17, global = 3.37172e-20, cumulative = -5.82648e-20
Pressure gradient source: uncorrected Ubar = 1.00031, pressure gradient = 1.50933
GAMG:  Solving for p, Initial residual = 0.179488, Final residual = 0.00581666, No Iterations 1
time step continuity errors : sum local = 3.23222e-17, global = -1.40873e-20, cumulative = -7.23522e-20
Pressure gradient source: uncorrected Ubar = 1.00065, pressure gradient = 1.35249
GAMG:  Solving for p, Initial residual = 0.125069, Final residual = 6.09366e-07, No Iterations 11
time step continuity errors : sum local = 3.24458e-17, global = -2.6224e-20, cumulative = -9.85762e-20
Pressure gradient source: uncorrected Ubar = 1.00076, pressure gradient = 1.30156
ExecutionTime = 0.74 s  ClockTime = 1 s

Courant Number mean: 0.450043 max: 0.459204
Time = 0.02

PIMPLE: iteration 1
GAMG:  Solving for p, Initial residual = 0.459003, Final residual = 0.00789549, No Iterations 1
time step continuity errors : sum local = 3.19183e-17, global = 8.11669e-20, cumulative = -1.74093e-20
Pressure gradient source: uncorrected Ubar = 1.00019, pressure gradient = 1.21649
GAMG:  Solving for p, Initial residual = 0.279458, Final residual = 0.00641436, No Iterations 1
time step continuity errors : sum local = 3.1807e-17, global = 1.45619e-19, cumulative = 1.2821e-19
Pressure gradient source: uncorrected Ubar = 1.0004, pressure gradient = 1.1202
GAMG:  Solving for p, Initial residual = 0.230047, Final residual = 6.6123e-07, No Iterations 14
time step continuity errors : sum local = 3.20574e-17, global = -3.94487e-20, cumulative = 8.87609e-20
Pressure gradient source: uncorrected Ubar = 1.00047, pressure gradient = 1.08541
ExecutionTime = 0.83 s  ClockTime = 1 s

Courant Number mean: 0.419649 max: 0.430461
Time = 0.025

PIMPLE: iteration 1
GAMG:  Solving for p, Initial residual = 0.450686, Final residual = 0.00798187, No Iterations 1
time step continuity errors : sum local = 3.14049e-17, global = 6.23164e-20, cumulative = 1.51077e-19
Pressure gradient source: uncorrected Ubar = 1.00012, pressure gradient = 1.03043
GAMG:  Solving for p, Initial residual = 0.368468, Final residual = 0.00713974, No Iterations 1
time step continuity errors : sum local = 3.15324e-17, global = -2.07284e-19, cumulative = -5.62071e-20
Pressure gradient source: uncorrected Ubar = 1.00026, pressure gradient = 0.967732
GAMG:  Solving for p, Initial residual = 0.351457, Final residual = 9.46798e-07, No Iterations 16
time step continuity errors : sum local = 3.15223e-17, global = -1.15805e-19, cumulative = -1.72012e-19
Pressure gradient source: uncorrected Ubar = 1.00031, pressure gradient = 0.942782
ExecutionTime = 0.93 s  ClockTime = 1 s

Courant Number mean: 0.408323 max: 0.420601
Time = 0.03

PIMPLE: iteration 1
GAMG:  Solving for p, Initial residual = 0.521913, Final residual = 0.0105979, No Iterations 1
time step continuity errors : sum local = 3.13922e-17, global = -6.4742e-20, cumulative = -2.36754e-19
Pressure gradient source: uncorrected Ubar = 1.00008, pressure gradient = 0.905098
GAMG:  Solving for p, Initial residual = 0.381932, Final residual = 0.00694597, No Iterations 1
time step continuity errors : sum local = 3.15013e-17, global = 5.08962e-20, cumulative = -1.85858e-19
Pressure gradient source: uncorrected Ubar = 1.00018, pressure gradient = 0.861845
GAMG:  Solving for p, Initial residual = 0.392056, Final residual = 1.98093e-07, No Iterations 10
time step continuity errors : sum local = 3.16794e-17, global = -3.48304e-20, cumulative = -2.20688e-19
Pressure gradient source: uncorrected Ubar = 1.00022, pressure gradient = 0.843155
ExecutionTime = 1.01 s  ClockTime = 1 s

Courant Number mean: 0.403658 max: 0.417286
Time = 0.035

PIMPLE: iteration 1
GAMG:  Solving for p, Initial residual = 0.575397, Final residual = 0.0112375, No Iterations 1
time step continuity errors : sum local = 3.11421e-17, global = -7.41391e-20, cumulative = -2.94828e-19
Pressure gradient source: uncorrected Ubar = 1.00006, pressure gradient = 0.815896
GAMG:  Solving for p, Initial residual = 0.405686, Final residual = 0.0084356, No Iterations 1
time step continuity errors : sum local = 3.12896e-17, global = 3.19656e-19, cumulative = 2.48287e-20
Pressure gradient source: uncorrected Ubar = 1.00013, pressure gradient = 0.784433
GAMG:  Solving for p, Initial residual = 0.396061, Final residual = 6.18988e-07, No Iterations 12
time step continuity errors : sum local = 3.14661e-17, global = 1.11453e-20, cumulative = 3.5974e-20
Pressure gradient source: uncorrected Ubar = 1.00016, pressure gradient = 0.7699
ExecutionTime = 1.09 s  ClockTime = 1 s

Courant Number mean: 0.401652 max: 0.416535
Time = 0.04

PIMPLE: iteration 1
GAMG:  Solving for p, Initial residual = 0.586535, Final residual = 0.0120705, No Iterations 1
time step continuity errors : sum local = 3.13204e-17, global = -1.8001e-19, cumulative = -1.44036e-19
Pressure gradient source: uncorrected Ubar = 1.00005, pressure gradient = 0.749236
GAMG:  Solving for p, Initial residual = 0.424649, Final residual = 0.00912692, No Iterations 1
time step continuity errors : sum local = 3.16598e-17, global = 5.97441e-20, cumulative = -8.42921e-20
Pressure gradient source: uncorrected Ubar = 1.0001, pressure gradient = 0.725276
GAMG:  Solving for p, Initial residual = 0.408902, Final residual = 7.49487e-07, No Iterations 13
time step continuity errors : sum local = 3.16231e-17, global = -1.54647e-19, cumulative = -2.38939e-19
Pressure gradient source: uncorrected Ubar = 1.00012, pressure gradient = 0.713618
ExecutionTime = 1.18 s  ClockTime = 1 s

Courant Number mean: 0.40077 max: 0.416828
Time = 0.045

PIMPLE: iteration 1
GAMG:  Solving for p, Initial residual = 0.572223, Final residual = 0.0113657, No Iterations 1
time step continuity errors : sum local = 3.13743e-17, global = -4.61994e-21, cumulative = -2.43559e-19
Pressure gradient source: uncorrected Ubar = 1.00004, pressure gradient = 0.697331
GAMG:  Solving for p, Initial residual = 0.437734, Final residual = 0.00852541, No Iterations 1
time step continuity errors : sum local = 3.15275e-17, global = -1.93844e-19, cumulative = -4.37403e-19
Pressure gradient source: uncorrected Ubar = 1.00008, pressure gradient = 0.67838
GAMG:  Solving for p, Initial residual = 0.422204, Final residual = 9.81951e-07, No Iterations 14
time step continuity errors : sum local = 3.14587e-17, global = -7.01034e-20, cumulative = -5.07506e-19
Pressure gradient source: uncorrected Ubar = 1.0001, pressure gradient = 0.668784
ExecutionTime = 1.27 s  ClockTime = 1 s

Courant Number mean: 0.400376 max: 0.417541
Time = 0.05

PIMPLE: iteration 1
GAMG:  Solving for p, Initial residual = 0.595958, Final residual = 0.0117687, No Iterations 1
time step continuity errors : sum local = 3.13547e-17, global = 1.62897e-19, cumulative = -3.44608e-19
Pressure gradient source: uncorrected Ubar = 1.00003, pressure gradient = 0.655537
GAMG:  Solving for p, Initial residual = 0.44887, Final residual = 0.00909293, No Iterations 1
time step continuity errors : sum local = 3.16033e-17, global = 1.50069e-19, cumulative = -1.9454e-19
Pressure gradient source: uncorrected Ubar = 1.00006, pressure gradient = 0.640082
GAMG:  Solving for p, Initial residual = 0.451524, Final residual = 2.06013e-07, No Iterations 13
time step continuity errors : sum local = 3.11315e-17, global = -3.9597e-20, cumulative = -2.34137e-19
Pressure gradient source: uncorrected Ubar = 1.00008, pressure gradient = 0.632014
ExecutionTime = 1.35 s  ClockTime = 1 s

Courant Number mean: 0.400197 max: 0.418409
Time = 0.055

PIMPLE: iteration 1
GAMG:  Solving for p, Initial residual = 0.598674, Final residual = 0.0124057, No Iterations 1
time step continuity errors : sum local = 3.06911e-17, global = 1.58287e-19, cumulative = -7.58502e-20
Pressure gradient source: uncorrected Ubar = 1.00002, pressure gradient = 0.620966
GAMG:  Solving for p, Initial residual = 0.43569, Final residual = 0.00873631, No Iterations 1
time step continuity errors : sum local = 3.066e-17, global = -5.78195e-20, cumulative = -1.3367e-19
Pressure gradient source: uncorrected Ubar = 1.00005, pressure gradient = 0.608049
GAMG:  Solving for p, Initial residual = 0.409351, Final residual = 3.46382e-07, No Iterations 14
time step continuity errors : sum local = 3.08608e-17, global = -1.24804e-19, cumulative = -2.58474e-19
Pressure gradient source: uncorrected Ubar = 1.00007, pressure gradient = 0.601147
ExecutionTime = 1.44 s  ClockTime = 1 s

Courant Number mean: 0.400113 max: 0.419322
Time = 0.06

PIMPLE: iteration 1
GAMG:  Solving for p, Initial residual = 0.599033, Final residual = 0.0118376, No Iterations 1
time step continuity errors : sum local = 3.09132e-17, global = 2.65966e-20, cumulative = -2.31877e-19
Pressure gradient source: uncorrected Ubar = 1.00002, pressure gradient = 0.591747
GAMG:  Solving for p, Initial residual = 0.412503, Final residual = 0.00856278, No Iterations 1
time step continuity errors : sum local = 3.10672e-17, global = 5.63512e-20, cumulative = -1.75526e-19
Pressure gradient source: uncorrected Ubar = 1.00004, pressure gradient = 0.580737
GAMG:  Solving for p, Initial residual = 0.437614, Final residual = 3.68818e-07, No Iterations 11
time step continuity errors : sum local = 3.10681e-17, global = 2.83958e-19, cumulative = 1.08432e-19
Pressure gradient source: uncorrected Ubar = 1.00006, pressure gradient = 0.574747
ExecutionTime = 1.52 s  ClockTime = 1 s

Courant Number mean: 0.400073 max: 0.420235
Time = 0.065

PIMPLE: iteration 1
GAMG:  Solving for p, Initial residual = 0.596249, Final residual = 0.0142334, No Iterations 1
time step continuity errors : sum local = 3.10837e-17, global = -1.59284e-19, cumulative = -5.08522e-20
Pressure gradient source: uncorrected Ubar = 1.00002, pressure gradient = 0.566618
GAMG:  Solving for p, Initial residual = 0.426945, Final residual = 0.00963312, No Iterations 1
time step continuity errors : sum local = 3.11802e-17, global = -2.10289e-19, cumulative = -2.61141e-19
Pressure gradient source: uncorrected Ubar = 1.00004, pressure gradient = 0.557083
GAMG:  Solving for p, Initial residual = 0.439187, Final residual = 9.95378e-07, No Iterations 14
time step continuity errors : sum local = 3.10043e-17, global = -9.84292e-20, cumulative = -3.5957e-19
Pressure gradient source: uncorrected Ubar = 1.00005, pressure gradient = 0.551821
ExecutionTime = 1.61 s  ClockTime = 2 s

Courant Number mean: 0.400052 max: 0.421129
Time = 0.07

PIMPLE: iteration 1
GAMG:  Solving for p, Initial residual = 0.593194, Final residual = 0.0150524, No Iterations 1
time step continuity errors : sum local = 3.12115e-17, global = -2.75485e-19, cumulative = -6.35055e-19
Pressure gradient source: uncorrected Ubar = 1.00002, pressure gradient = 0.544698
GAMG:  Solving for p, Initial residual = 0.441602, Final residual = 0.00955758, No Iterations 1
time step continuity errors : sum local = 3.10315e-17, global = 6.65845e-20, cumulative = -5.6847e-19
Pressure gradient source: uncorrected Ubar = 1.00003, pressure gradient = 0.536334
GAMG:  Solving for p, Initial residual = 0.41836, Final residual = 6.94963e-07, No Iterations 15
time step continuity errors : sum local = 3.10618e-17, global = 2.68504e-19, cumulative = -2.99966e-19
Pressure gradient source: uncorrected Ubar = 1.00004, pressure gradient = 0.531664
ExecutionTime = 1.68 s  ClockTime = 2 s

Courant Number mean: 0.40004 max: 0.421998
Time = 0.075

PIMPLE: iteration 1
GAMG:  Solving for p, Initial residual = 0.59447, Final residual = 0.0152888, No Iterations 1
time step continuity errors : sum local = 3.13389e-17, global = -9.38496e-20, cumulative = -3.93816e-19
Pressure gradient source: uncorrected Ubar = 1.00001, pressure gradient = 0.525353
GAMG:  Solving for p, Initial residual = 0.435846, Final residual = 0.00986097, No Iterations 1
time step continuity errors : sum local = 3.07346e-17, global = 1.28572e-20, cumulative = -3.80958e-19
Pressure gradient source: uncorrected Ubar = 1.00003, pressure gradient = 0.517936
GAMG:  Solving for p, Initial residual = 0.438092, Final residual = 9.07698e-07, No Iterations 16
time step continuity errors : sum local = 3.14002e-17, global = 3.67743e-20, cumulative = -3.44184e-19
Pressure gradient source: uncorrected Ubar = 1.00004, pressure gradient = 0.513756
ExecutionTime = 1.75 s  ClockTime = 2 s

Courant Number mean: 0.400033 max: 0.422842
Time = 0.08

PIMPLE: iteration 1
GAMG:  Solving for p, Initial residual = 0.586949, Final residual = 0.0117146, No Iterations 1
time step continuity errors : sum local = 3.09462e-17, global = 1.67693e-19, cumulative = -1.76491e-19
Pressure gradient source: uncorrected Ubar = 1.00001, pressure gradient = 0.508113
GAMG:  Solving for p, Initial residual = 0.448261, Final residual = 0.0112135, No Iterations 1
time step continuity errors : sum local = 3.13018e-17, global = 7.22392e-20, cumulative = -1.04252e-19
Pressure gradient source: uncorrected Ubar = 1.00003, pressure gradient = 0.501475
GAMG:  Solving for p, Initial residual = 0.438714, Final residual = 3.19548e-07, No Iterations 12
time step continuity errors : sum local = 3.09327e-17, global = 6.79478e-20, cumulative = -3.63041e-20
Pressure gradient source: uncorrected Ubar = 1.00004, pressure gradient = 0.497704
ExecutionTime = 1.8 s  ClockTime = 2 s

Courant Number mean: 0.400029 max: 0.423661
Time = 0.085

PIMPLE: iteration 1
GAMG:  Solving for p, Initial residual = 0.590429, Final residual = 0.0123748, No Iterations 1
time step continuity errors : sum local = 3.08259e-17, global = -1.70006e-19, cumulative = -2.0631e-19
Pressure gradient source: uncorrected Ubar = 1.00001, pressure gradient = 0.492618
GAMG:  Solving for p, Initial residual = 0.430894, Final residual = 0.00962936, No Iterations 1
time step continuity errors : sum local = 3.13208e-17, global = 1.41149e-19, cumulative = -6.51617e-20
Pressure gradient source: uncorrected Ubar = 1.00002, pressure gradient = 0.486632
GAMG:  Solving for p, Initial residual = 0.427792, Final residual = 7.28141e-07, No Iterations 14
time step continuity errors : sum local = 3.11171e-17, global = -1.85748e-20, cumulative = -8.37365e-20
Pressure gradient source: uncorrected Ubar = 1.00003, pressure gradient = 0.483208
ExecutionTime = 1.87 s  ClockTime = 2 s

Courant Number mean: 0.400025 max: 0.424458
Time = 0.09

PIMPLE: iteration 1
GAMG:  Solving for p, Initial residual = 0.59599, Final residual = 0.0162649, No Iterations 1
time step continuity errors : sum local = 3.06724e-17, global = -5.54265e-20, cumulative = -1.39163e-19
Pressure gradient source: uncorrected Ubar = 1.00001, pressure gradient = 0.478593
GAMG:  Solving for p, Initial residual = 0.441901, Final residual = 0.00964471, No Iterations 1
time step continuity errors : sum local = 3.11442e-17, global = 4.46376e-20, cumulative = -9.45254e-20
Pressure gradient source: uncorrected Ubar = 1.00002, pressure gradient = 0.473157
GAMG:  Solving for p, Initial residual = 0.447605, Final residual = 6.52476e-07, No Iterations 11
time step continuity errors : sum local = 3.11181e-17, global = -1.84585e-19, cumulative = -2.7911e-19
Pressure gradient source: uncorrected Ubar = 1.00003, pressure gradient = 0.470031
ExecutionTime = 1.92 s  ClockTime = 2 s

Courant Number mean: 0.400023 max: 0.425233
Time = 0.095

PIMPLE: iteration 1
GAMG:  Solving for p, Initial residual = 0.599531, Final residual = 0.0154982, No Iterations 1
time step continuity errors : sum local = 3.1358e-17, global = -1.60871e-20, cumulative = -2.95197e-19
Pressure gradient source: uncorrected Ubar = 1.00001, pressure gradient = 0.465818
GAMG:  Solving for p, Initial residual = 0.428139, Final residual = 0.0101387, No Iterations 1
time step continuity errors : sum local = 3.14051e-17, global = 1.40023e-20, cumulative = -2.81195e-19
Pressure gradient source: uncorrected Ubar = 1.00002, pressure gradient = 0.460854
GAMG:  Solving for p, Initial residual = 0.44344, Final residual = 9.68014e-07, No Iterations 11
time step continuity errors : sum local = 3.11981e-17, global = 1.75494e-19, cumulative = -1.05701e-19
Pressure gradient source: uncorrected Ubar = 1.00003, pressure gradient = 0.457984
ExecutionTime = 1.99 s  ClockTime = 2 s

Courant Number mean: 0.40002 max: 0.425988
Time = 0.1

PIMPLE: iteration 1
GAMG:  Solving for p, Initial residual = 0.589611, Final residual = 0.0166215, No Iterations 1
time step continuity errors : sum local = 3.14957e-17, global = -1.74826e-20, cumulative = -1.23184e-19
Pressure gradient source: uncorrected Ubar = 1.00001, pressure gradient = 0.454118
GAMG:  Solving for p, Initial residual = 0.435179, Final residual = 0.00861756, No Iterations 1
time step continuity errors : sum local = 3.14827e-17, global = -2.87809e-19, cumulative = -4.10993e-19
Pressure gradient source: uncorrected Ubar = 1.00002, pressure gradient = 0.44956
GAMG:  Solving for p, Initial residual = 0.446995, Final residual = 7.8558e-07, No Iterations 16
time step continuity errors : sum local = 3.08602e-17, global = -1.0923e-19, cumulative = -5.20222e-19
Pressure gradient source: uncorrected Ubar = 1.00002, pressure gradient = 0.446913
ExecutionTime = 2.05 s  ClockTime = 2 s

Courant Number mean: 0.400019 max: 0.426725
Time = 0.105

PIMPLE: iteration 1
GAMG:  Solving for p, Initial residual = 0.591395, Final residual = 0.0137738, No Iterations 1
time step continuity errors : sum local = 3.04697e-17, global = -2.34941e-19, cumulative = -7.55164e-19
Pressure gradient source: uncorrected Ubar = 1.00001, pressure gradient = 0.44335
GAMG:  Solving for p, Initial residual = 0.432671, Final residual = 0.00880654, No Iterations 1
time step continuity errors : sum local = 3.07091e-17, global = -1.36264e-19, cumulative = -8.91428e-19
Pressure gradient source: uncorrected Ubar = 1.00002, pressure gradient = 0.439145
GAMG:  Solving for p, Initial residual = 0.446491, Final residual = 6.64296e-07, No Iterations 18
time step continuity errors : sum local = 3.03469e-17, global = 9.69605e-20, cumulative = -7.94467e-19
Pressure gradient source: uncorrected Ubar = 1.00002, pressure gradient = 0.436695
ExecutionTime = 2.13 s  ClockTime = 2 s

Courant Number mean: 0.400017 max: 0.427445
Time = 0.11

PIMPLE: iteration 1
GAMG:  Solving for p, Initial residual = 0.588423, Final residual = 0.0115445, No Iterations 1
time step continuity errors : sum local = 3.02943e-17, global = 1.60403e-19, cumulative = -6.34065e-19
Pressure gradient source: uncorrected Ubar = 1.00001, pressure gradient = 0.433396
GAMG:  Solving for p, Initial residual = 0.439996, Final residual = 0.0127878, No Iterations 1
time step continuity errors : sum local = 3.08413e-17, global = -4.67052e-20, cumulative = -6.8077e-19
Pressure gradient source: uncorrected Ubar = 1.00002, pressure gradient = 0.429502
GAMG:  Solving for p, Initial residual = 0.434933, Final residual = 6.76627e-07, No Iterations 16
time step continuity errors : sum local = 3.02625e-17, global = -2.31935e-19, cumulative = -9.12705e-19
Pressure gradient source: uncorrected Ubar = 1.00002, pressure gradient = 0.427224
ExecutionTime = 2.2 s  ClockTime = 2 s

Courant Number mean: 0.400016 max: 0.42815
Time = 0.115

PIMPLE: iteration 1
GAMG:  Solving for p, Initial residual = 0.59006, Final residual = 0.0159431, No Iterations 1
time step continuity errors : sum local = 3.07415e-17, global = -2.97015e-20, cumulative = -9.42406e-19
Pressure gradient source: uncorrected Ubar = 1.00001, pressure gradient = 0.424159
GAMG:  Solving for p, Initial residual = 0.44622, Final residual = 0.0096804, No Iterations 1
time step continuity errors : sum local = 3.08783e-17, global = 1.22126e-19, cumulative = -8.20281e-19
Pressure gradient source: uncorrected Ubar = 1.00001, pressure gradient = 0.420539
GAMG:  Solving for p, Initial residual = 0.450941, Final residual = 6.84031e-07, No Iterations 11
time step continuity errors : sum local = 3.04802e-17, global = 8.78485e-20, cumulative = -7.32432e-19
Pressure gradient source: uncorrected Ubar = 1.00002, pressure gradient = 0.418415
ExecutionTime = 2.25 s  ClockTime = 2 s

Courant Number mean: 0.400015 max: 0.42884
Time = 0.12

PIMPLE: iteration 1
GAMG:  Solving for p, Initial residual = 0.59661, Final residual = 0.0124967, No Iterations 1
time step continuity errors : sum local = 3.05566e-17, global = 1.40086e-19, cumulative = -5.92346e-19
Pressure gradient source: uncorrected Ubar = 1.00001, pressure gradient = 0.415556
GAMG:  Solving for p, Initial residual = 0.446982, Final residual = 0.0114164, No Iterations 1
time step continuity errors : sum local = 3.07927e-17, global = 1.24817e-19, cumulative = -4.67529e-19
Pressure gradient source: uncorrected Ubar = 1.00001, pressure gradient = 0.41218
GAMG:  Solving for p, Initial residual = 0.439124, Final residual = 4.94771e-07, No Iterations 13
time step continuity errors : sum local = 3.04299e-17, global = -1.61849e-19, cumulative = -6.29377e-19
Pressure gradient source: uncorrected Ubar = 1.00002, pressure gradient = 0.410193
ExecutionTime = 2.31 s  ClockTime = 2 s

Courant Number mean: 0.400014 max: 0.429517
Time = 0.125

PIMPLE: iteration 1
GAMG:  Solving for p, Initial residual = 0.611013, Final residual = 0.0149856, No Iterations 1
time step continuity errors : sum local = 3.08452e-17, global = -1.91452e-19, cumulative = -8.2083e-19
Pressure gradient source: uncorrected Ubar = 1.00001, pressure gradient = 0.40752
GAMG:  Solving for p, Initial residual = 0.436964, Final residual = 0.0123714, No Iterations 1
time step continuity errors : sum local = 3.08732e-17, global = -9.2693e-20, cumulative = -9.13523e-19
Pressure gradient source: uncorrected Ubar = 1.00001, pressure gradient = 0.40436
GAMG:  Solving for p, Initial residual = 0.43525, Final residual = 1.47179e-07, No Iterations 13
time step continuity errors : sum local = 3.0367e-17, global = 1.40814e-19, cumulative = -7.72708e-19
Pressure gradient source: uncorrected Ubar = 1.00002, pressure gradient = 0.402497
ExecutionTime = 2.37 s  ClockTime = 2 s

Courant Number mean: 0.400013 max: 0.430181
Time = 0.13

PIMPLE: iteration 1
GAMG:  Solving for p, Initial residual = 0.597138, Final residual = 0.0165895, No Iterations 1
time step continuity errors : sum local = 3.04942e-17, global = 9.60201e-20, cumulative = -6.76688e-19
Pressure gradient source: uncorrected Ubar = 1.00001, pressure gradient = 0.399989
GAMG:  Solving for p, Initial residual = 0.440363, Final residual = 0.0132544, No Iterations 1
time step continuity errors : sum local = 3.11755e-17, global = -6.94684e-20, cumulative = -7.46156e-19
Pressure gradient source: uncorrected Ubar = 1.00001, pressure gradient = 0.397025
GAMG:  Solving for p, Initial residual = 0.441311, Final residual = 3.52583e-07, No Iterations 13
time step continuity errors : sum local = 3.04337e-17, global = 1.25454e-19, cumulative = -6.20703e-19
Pressure gradient source: uncorrected Ubar = 1.00002, pressure gradient = 0.395272
ExecutionTime = 2.43 s  ClockTime = 2 s

Courant Number mean: 0.400012 max: 0.430833
Time = 0.135

PIMPLE: iteration 1
GAMG:  Solving for p, Initial residual = 0.59333, Final residual = 0.0149625, No Iterations 1
time step continuity errors : sum local = 3.06575e-17, global = 2.01143e-19, cumulative = -4.1956e-19
Pressure gradient source: uncorrected Ubar = 1.00001, pressure gradient = 0.392914
GAMG:  Solving for p, Initial residual = 0.446844, Final residual = 0.0158211, No Iterations 1
time step continuity errors : sum local = 3.06672e-17, global = 2.38332e-19, cumulative = -1.81229e-19
Pressure gradient source: uncorrected Ubar = 1.00001, pressure gradient = 0.390125
GAMG:  Solving for p, Initial residual = 0.433817, Final residual = 8.11163e-07, No Iterations 14
time step continuity errors : sum local = 3.0437e-17, global = -9.17537e-20, cumulative = -2.72982e-19
Pressure gradient source: uncorrected Ubar = 1.00001, pressure gradient = 0.388473
ExecutionTime = 2.5 s  ClockTime = 2 s

Courant Number mean: 0.400011 max: 0.431474
Time = 0.14

PIMPLE: iteration 1
GAMG:  Solving for p, Initial residual = 0.596078, Final residual = 0.0162519, No Iterations 1
time step continuity errors : sum local = 3.05191e-17, global = 1.41843e-19, cumulative = -1.3114e-19
Pressure gradient source: uncorrected Ubar = 1, pressure gradient = 0.38625
GAMG:  Solving for p, Initial residual = 0.441421, Final residual = 0.0112264, No Iterations 1
time step continuity errors : sum local = 3.05407e-17, global = -1.29804e-19, cumulative = -2.60944e-19
Pressure gradient source: uncorrected Ubar = 1.00001, pressure gradient = 0.383621
GAMG:  Solving for p, Initial residual = 0.441848, Final residual = 1.67412e-07, No Iterations 12
time step continuity errors : sum local = 3.0687e-17, global = -2.72152e-19, cumulative = -5.33096e-19
Pressure gradient source: uncorrected Ubar = 1.00001, pressure gradient = 0.38206
ExecutionTime = 2.56 s  ClockTime = 2 s

Courant Number mean: 0.40001 max: 0.432104
Time = 0.145

PIMPLE: iteration 1
GAMG:  Solving for p, Initial residual = 0.594537, Final residual = 0.0147836, No Iterations 1
time step continuity errors : sum local = 3.07789e-17, global = 1.12828e-19, cumulative = -4.20268e-19
Pressure gradient source: uncorrected Ubar = 1, pressure gradient = 0.379959
GAMG:  Solving for p, Initial residual = 0.445349, Final residual = 0.0102566, No Iterations 1
time step continuity errors : sum local = 3.11318e-17, global = 2.141e-19, cumulative = -2.06168e-19
Pressure gradient source: uncorrected Ubar = 1.00001, pressure gradient = 0.377475
GAMG:  Solving for p, Initial residual = 0.442748, Final residual = 3.64467e-07, No Iterations 15
time step continuity errors : sum local = 3.06182e-17, global = 1.77078e-19, cumulative = -2.90901e-20
Pressure gradient source: uncorrected Ubar = 1.00001, pressure gradient = 0.375997
ExecutionTime = 2.62 s  ClockTime = 3 s

Courant Number mean: 0.40001 max: 0.432724
Time = 0.15

PIMPLE: iteration 1
GAMG:  Solving for p, Initial residual = 0.604502, Final residual = 0.0141707, No Iterations 1
time step continuity errors : sum local = 3.04336e-17, global = -1.38807e-19, cumulative = -1.67897e-19
Pressure gradient source: uncorrected Ubar = 1, pressure gradient = 0.374008
GAMG:  Solving for p, Initial residual = 0.444501, Final residual = 0.00895551, No Iterations 1
time step continuity errors : sum local = 3.04944e-17, global = -1.79944e-19, cumulative = -3.47841e-19
Pressure gradient source: uncorrected Ubar = 1.00001, pressure gradient = 0.371656
GAMG:  Solving for p, Initial residual = 0.44135, Final residual = 6.1208e-07, No Iterations 15
time step continuity errors : sum local = 3.03496e-17, global = 1.77927e-20, cumulative = -3.30048e-19
Pressure gradient source: uncorrected Ubar = 1.00001, pressure gradient = 0.370254
ExecutionTime = 2.69 s  ClockTime = 3 s

Courant Number mean: 0.400009 max: 0.433335
Time = 0.155

PIMPLE: iteration 1
GAMG:  Solving for p, Initial residual = 0.599076, Final residual = 0.0116732, No Iterations 1
time step continuity errors : sum local = 3.00205e-17, global = -5.39079e-20, cumulative = -3.83956e-19
Pressure gradient source: uncorrected Ubar = 1, pressure gradient = 0.368368
GAMG:  Solving for p, Initial residual = 0.445151, Final residual = 0.00902673, No Iterations 1
time step continuity errors : sum local = 3.02923e-17, global = -1.05672e-19, cumulative = -4.89628e-19
Pressure gradient source: uncorrected Ubar = 1.00001, pressure gradient = 0.366136
GAMG:  Solving for p, Initial residual = 0.447006, Final residual = 1.78032e-07, No Iterations 12
time step continuity errors : sum local = 3.03748e-17, global = -4.71316e-20, cumulative = -5.3676e-19
Pressure gradient source: uncorrected Ubar = 1.00001, pressure gradient = 0.364804
ExecutionTime = 2.75 s  ClockTime = 3 s

Courant Number mean: 0.400009 max: 0.433936
Time = 0.16

PIMPLE: iteration 1
GAMG:  Solving for p, Initial residual = 0.590051, Final residual = 0.00949381, No Iterations 1
time step continuity errors : sum local = 3.027e-17, global = -2.94331e-20, cumulative = -5.66193e-19
Pressure gradient source: uncorrected Ubar = 1, pressure gradient = 0.363012
GAMG:  Solving for p, Initial residual = 0.451218, Final residual = 0.00871668, No Iterations 1
time step continuity errors : sum local = 3.03066e-17, global = -1.21368e-20, cumulative = -5.7833e-19
Pressure gradient source: uncorrected Ubar = 1.00001, pressure gradient = 0.36089
GAMG:  Solving for p, Initial residual = 0.435184, Final residual = 1.38436e-07, No Iterations 17
time step continuity errors : sum local = 3.04335e-17, global = -2.61294e-20, cumulative = -6.04459e-19
Pressure gradient source: uncorrected Ubar = 1.00001, pressure gradient = 0.359623
ExecutionTime = 2.82 s  ClockTime = 3 s

Courant Number mean: 0.400008 max: 0.43453
Time = 0.165

PIMPLE: iteration 1
GAMG:  Solving for p, Initial residual = 0.587474, Final residual = 0.0124314, No Iterations 1
time step continuity errors : sum local = 3.05183e-17, global = -2.28279e-19, cumulative = -8.32739e-19
Pressure gradient source: uncorrected Ubar = 1, pressure gradient = 0.357917
GAMG:  Solving for p, Initial residual = 0.436712, Final residual = 0.00730701, No Iterations 1
time step continuity errors : sum local = 3.05613e-17, global = 2.30556e-19, cumulative = -6.02183e-19
Pressure gradient source: uncorrected Ubar = 1.00001, pressure gradient = 0.355898
GAMG:  Solving for p, Initial residual = 0.453994, Final residual = 9.77088e-07, No Iterations 13
time step continuity errors : sum local = 3.0422e-17, global = 1.09329e-19, cumulative = -4.92854e-19
Pressure gradient source: uncorrected Ubar = 1.00001, pressure gradient = 0.354689
ExecutionTime = 2.89 s  ClockTime = 3 s

Courant Number mean: 0.400008 max: 0.435114
Time = 0.17

PIMPLE: iteration 1
GAMG:  Solving for p, Initial residual = 0.591143, Final residual = 0.0164384, No Iterations 1
time step continuity errors : sum local = 3.06086e-17, global = 8.32435e-20, cumulative = -4.0961e-19
Pressure gradient source: uncorrected Ubar = 1, pressure gradient = 0.353063
GAMG:  Solving for p, Initial residual = 0.439407, Final residual = 0.00987221, No Iterations 1
time step continuity errors : sum local = 3.00291e-17, global = -2.71473e-20, cumulative = -4.36758e-19
Pressure gradient source: uncorrected Ubar = 1.00001, pressure gradient = 0.351138
GAMG:  Solving for p, Initial residual = 0.442679, Final residual = 6.57644e-07, No Iterations 15
time step continuity errors : sum local = 3.03358e-17, global = -1.69336e-19, cumulative = -6.06094e-19
Pressure gradient source: uncorrected Ubar = 1.00001, pressure gradient = 0.349984
ExecutionTime = 2.96 s  ClockTime = 3 s

Courant Number mean: 0.400008 max: 0.435692
Time = 0.175

PIMPLE: iteration 1
GAMG:  Solving for p, Initial residual = 0.611662, Final residual = 0.014573, No Iterations 1
time step continuity errors : sum local = 3.07204e-17, global = 2.84618e-20, cumulative = -5.77632e-19
Pressure gradient source: uncorrected Ubar = 1, pressure gradient = 0.348432
GAMG:  Solving for p, Initial residual = 0.438337, Final residual = 0.00760168, No Iterations 1
time step continuity errors : sum local = 3.05674e-17, global = -9.49325e-20, cumulative = -6.72564e-19
Pressure gradient source: uncorrected Ubar = 1.00001, pressure gradient = 0.346594
GAMG:  Solving for p, Initial residual = 0.443761, Final residual = 9.13069e-07, No Iterations 13
time step continuity errors : sum local = 3.03146e-17, global = -1.65597e-19, cumulative = -8.38161e-19
Pressure gradient source: uncorrected Ubar = 1.00001, pressure gradient = 0.345491
ExecutionTime = 3.02 s  ClockTime = 3 s

Courant Number mean: 0.400007 max: 0.436261
Time = 0.18

PIMPLE: iteration 1
GAMG:  Solving for p, Initial residual = 0.598947, Final residual = 0.0130915, No Iterations 1
time step continuity errors : sum local = 3.02655e-17, global = -9.50614e-20, cumulative = -9.33223e-19
Pressure gradient source: uncorrected Ubar = 1, pressure gradient = 0.344007
GAMG:  Solving for p, Initial residual = 0.451318, Final residual = 0.00841084, No Iterations 1
time step continuity errors : sum local = 3.00683e-17, global = -1.87374e-19, cumulative = -1.1206e-18
Pressure gradient source: uncorrected Ubar = 1.00001, pressure gradient = 0.342249
GAMG:  Solving for p, Initial residual = 0.438717, Final residual = 9.60153e-07, No Iterations 12
time step continuity errors : sum local = 2.9867e-17, global = -1.27997e-19, cumulative = -1.24859e-18
Pressure gradient source: uncorrected Ubar = 1.00001, pressure gradient = 0.341194
ExecutionTime = 3.08 s  ClockTime = 3 s

Courant Number mean: 0.400007 max: 0.436824
Time = 0.185

PIMPLE: iteration 1
GAMG:  Solving for p, Initial residual = 0.58334, Final residual = 0.0124628, No Iterations 1
time step continuity errors : sum local = 3.00323e-17, global = -5.27811e-20, cumulative = -1.30137e-18
Pressure gradient source: uncorrected Ubar = 1, pressure gradient = 0.339773
GAMG:  Solving for p, Initial residual = 0.441176, Final residual = 0.00847735, No Iterations 1
time step continuity errors : sum local = 2.98061e-17, global = -1.31622e-19, cumulative = -1.433e-18
Pressure gradient source: uncorrected Ubar = 1.00001, pressure gradient = 0.338091
GAMG:  Solving for p, Initial residual = 0.445685, Final residual = 5.73905e-07, No Iterations 10
time step continuity errors : sum local = 2.98183e-17, global = -3.30781e-20, cumulative = -1.46607e-18
Pressure gradient source: uncorrected Ubar = 1.00001, pressure gradient = 0.337079
ExecutionTime = 3.13 s  ClockTime = 3 s

Courant Number mean: 0.400007 max: 0.43738
Time = 0.19

PIMPLE: iteration 1
GAMG:  Solving for p, Initial residual = 0.601741, Final residual = 0.0124952, No Iterations 1
time step continuity errors : sum local = 2.98404e-17, global = -2.14875e-19, cumulative = -1.68095e-18
Pressure gradient source: uncorrected Ubar = 1, pressure gradient = 0.335718
GAMG:  Solving for p, Initial residual = 0.444005, Final residual = 0.00891759, No Iterations 1
time step continuity errors : sum local = 2.98008e-17, global = -8.77004e-20, cumulative = -1.76865e-18
Pressure gradient source: uncorrected Ubar = 1.00001, pressure gradient = 0.334105
GAMG:  Solving for p, Initial residual = 0.45071, Final residual = 9.06809e-07, No Iterations 15
time step continuity errors : sum local = 2.99576e-17, global = -1.21843e-19, cumulative = -1.89049e-18
Pressure gradient source: uncorrected Ubar = 1.00001, pressure gradient = 0.333135
ExecutionTime = 3.19 s  ClockTime = 3 s

Courant Number mean: 0.400006 max: 0.437929
Time = 0.195

PIMPLE: iteration 1
GAMG:  Solving for p, Initial residual = 0.596948, Final residual = 0.0146252, No Iterations 1
time step continuity errors : sum local = 3.02043e-17, global = -2.4713e-19, cumulative = -2.13762e-18
Pressure gradient source: uncorrected Ubar = 1, pressure gradient = 0.331829
GAMG:  Solving for p, Initial residual = 0.456753, Final residual = 0.00916385, No Iterations 1
time step continuity errors : sum local = 3.02084e-17, global = 2.47105e-19, cumulative = -1.89052e-18
Pressure gradient source: uncorrected Ubar = 1.00001, pressure gradient = 0.330281
GAMG:  Solving for p, Initial residual = 0.445429, Final residual = 7.22478e-07, No Iterations 10
time step continuity errors : sum local = 3.01337e-17, global = 1.6366e-19, cumulative = -1.72686e-18
Pressure gradient source: uncorrected Ubar = 1.00001, pressure gradient = 0.329349
ExecutionTime = 3.25 s  ClockTime = 3 s

Courant Number mean: 0.400006 max: 0.438472
Time = 0.2

PIMPLE: iteration 1
GAMG:  Solving for p, Initial residual = 0.597755, Final residual = 0.0165576, No Iterations 1
time step continuity errors : sum local = 2.99932e-17, global = 9.93899e-22, cumulative = -1.72586e-18
Pressure gradient source: uncorrected Ubar = 1, pressure gradient = 0.328094
GAMG:  Solving for p, Initial residual = 0.449104, Final residual = 0.0123215, No Iterations 1
time step continuity errors : sum local = 2.99376e-17, global = -1.44593e-19, cumulative = -1.87046e-18
Pressure gradient source: uncorrected Ubar = 1.00001, pressure gradient = 0.326608
GAMG:  Solving for p, Initial residual = 0.458181, Final residual = 2.17213e-07, No Iterations 12
time step continuity errors : sum local = 2.98764e-17, global = -1.03716e-19, cumulative = -1.97417e-18
Pressure gradient source: uncorrected Ubar = 1.00001, pressure gradient = 0.325711
ExecutionTime = 3.3 s  ClockTime = 3 s

Courant Number mean: 0.400006 max: 0.439009
Time = 0.205

PIMPLE: iteration 1
GAMG:  Solving for p, Initial residual = 0.615158, Final residual = 0.0114359, No Iterations 1
time step continuity errors : sum local = 2.97668e-17, global = 4.11717e-20, cumulative = -1.933e-18
Pressure gradient source: uncorrected Ubar = 1, pressure gradient = 0.324505
GAMG:  Solving for p, Initial residual = 0.467865, Final residual = 0.00923288, No Iterations 1
time step continuity errors : sum local = 2.99475e-17, global = 2.6399e-19, cumulative = -1.66901e-18
Pressure gradient source: uncorrected Ubar = 1.00001, pressure gradient = 0.323076
GAMG:  Solving for p, Initial residual = 0.457839, Final residual = 3.93036e-07, No Iterations 13
time step continuity errors : sum local = 3.00735e-17, global = -1.12666e-20, cumulative = -1.68028e-18
Pressure gradient source: uncorrected Ubar = 1.00001, pressure gradient = 0.322213
ExecutionTime = 3.37 s  ClockTime = 3 s

Courant Number mean: 0.400006 max: 0.43954
Time = 0.21

PIMPLE: iteration 1
GAMG:  Solving for p, Initial residual = 0.609841, Final residual = 0.0157778, No Iterations 1
time step continuity errors : sum local = 3.02376e-17, global = -8.29158e-20, cumulative = -1.76319e-18
Pressure gradient source: uncorrected Ubar = 1, pressure gradient = 0.321052
GAMG:  Solving for p, Initial residual = 0.466693, Final residual = 0.0118125, No Iterations 1
time step continuity errors : sum local = 2.975e-17, global = 9.50377e-21, cumulative = -1.75369e-18
Pressure gradient source: uncorrected Ubar = 1.00001, pressure gradient = 0.319676
GAMG:  Solving for p, Initial residual = 0.46497, Final residual = 1.80733e-07, No Iterations 10
time step continuity errors : sum local = 2.95933e-17, global = -2.38809e-19, cumulative = -1.9925e-18
Pressure gradient source: uncorrected Ubar = 1.00001, pressure gradient = 0.318845
ExecutionTime = 3.43 s  ClockTime = 3 s

Courant Number mean: 0.400005 max: 0.440066
Time = 0.215

PIMPLE: iteration 1
GAMG:  Solving for p, Initial residual = 0.608931, Final residual = 0.0145238, No Iterations 1
time step continuity errors : sum local = 3.03355e-17, global = -7.4003e-20, cumulative = -2.0665e-18
Pressure gradient source: uncorrected Ubar = 1, pressure gradient = 0.317727
GAMG:  Solving for p, Initial residual = 0.46261, Final residual = 0.0105306, No Iterations 1
time step continuity errors : sum local = 2.98114e-17, global = -3.80475e-21, cumulative = -2.07031e-18
Pressure gradient source: uncorrected Ubar = 1.00001, pressure gradient = 0.316401
GAMG:  Solving for p, Initial residual = 0.464214, Final residual = 3.80274e-07, No Iterations 15
time step continuity errors : sum local = 2.96238e-17, global = -1.75944e-19, cumulative = -2.24625e-18
Pressure gradient source: uncorrected Ubar = 1.00001, pressure gradient = 0.3156
ExecutionTime = 3.49 s  ClockTime = 3 s

Courant Number mean: 0.400005 max: 0.440586
Time = 0.22

PIMPLE: iteration 1
GAMG:  Solving for p, Initial residual = 0.605747, Final residual = 0.0111634, No Iterations 1
time step continuity errors : sum local = 3.02335e-17, global = 6.47038e-20, cumulative = -2.18155e-18
Pressure gradient source: uncorrected Ubar = 1, pressure gradient = 0.314522
GAMG:  Solving for p, Initial residual = 0.457619, Final residual = 0.0101452, No Iterations 1
time step continuity errors : sum local = 3.00655e-17, global = -1.1077e-19, cumulative = -2.29232e-18
Pressure gradient source: uncorrected Ubar = 1.00001, pressure gradient = 0.313243
GAMG:  Solving for p, Initial residual = 0.461228, Final residual = 9.23774e-07, No Iterations 13
time step continuity errors : sum local = 3.0069e-17, global = 1.31788e-19, cumulative = -2.16053e-18
Pressure gradient source: uncorrected Ubar = 1.00001, pressure gradient = 0.31247
ExecutionTime = 3.55 s  ClockTime = 3 s

Courant Number mean: 0.400005 max: 0.441101
Time = 0.225

PIMPLE: iteration 1
GAMG:  Solving for p, Initial residual = 0.601857, Final residual = 0.0131224, No Iterations 1
time step continuity errors : sum local = 2.9998e-17, global = 4.47809e-20, cumulative = -2.11575e-18
Pressure gradient source: uncorrected Ubar = 1, pressure gradient = 0.311429
GAMG:  Solving for p, Initial residual = 0.459384, Final residual = 0.00825476, No Iterations 1
time step continuity errors : sum local = 2.98205e-17, global = -7.19191e-20, cumulative = -2.18767e-18
Pressure gradient source: uncorrected Ubar = 1, pressure gradient = 0.310196
GAMG:  Solving for p, Initial residual = 0.460517, Final residual = 5.4942e-07, No Iterations 13
time step continuity errors : sum local = 3.00863e-17, global = 8.85318e-20, cumulative = -2.09914e-18
Pressure gradient source: uncorrected Ubar = 1.00001, pressure gradient = 0.309449
ExecutionTime = 3.61 s  ClockTime = 4 s

Courant Number mean: 0.400005 max: 0.441612
Time = 0.23

PIMPLE: iteration 1
GAMG:  Solving for p, Initial residual = 0.603696, Final residual = 0.0124389, No Iterations 1
time step continuity errors : sum local = 3.01638e-17, global = -1.53391e-19, cumulative = -2.25253e-18
Pressure gradient source: uncorrected Ubar = 1, pressure gradient = 0.308444
GAMG:  Solving for p, Initial residual = 0.466633, Final residual = 0.00823944, No Iterations 1
time step continuity errors : sum local = 3.02894e-17, global = -1.18058e-19, cumulative = -2.37059e-18
Pressure gradient source: uncorrected Ubar = 1, pressure gradient = 0.307252
GAMG:  Solving for p, Initial residual = 0.46682, Final residual = 8.10479e-07, No Iterations 12
time step continuity errors : sum local = 2.98786e-17, global = 3.13426e-21, cumulative = -2.36745e-18
Pressure gradient source: uncorrected Ubar = 1.00001, pressure gradient = 0.306531
ExecutionTime = 3.67 s  ClockTime = 4 s

Courant Number mean: 0.400005 max: 0.442117
Time = 0.235

PIMPLE: iteration 1
GAMG:  Solving for p, Initial residual = 0.597538, Final residual = 0.014355, No Iterations 1
time step continuity errors : sum local = 3.01069e-17, global = -7.42754e-20, cumulative = -2.44173e-18
Pressure gradient source: uncorrected Ubar = 1, pressure gradient = 0.305559
GAMG:  Solving for p, Initial residual = 0.463997, Final residual = 0.00858246, No Iterations 1
time step continuity errors : sum local = 2.99538e-17, global = -6.34096e-20, cumulative = -2.50514e-18
Pressure gradient source: uncorrected Ubar = 1, pressure gradient = 0.304407
GAMG:  Solving for p, Initial residual = 0.451051, Final residual = 6.61913e-07, No Iterations 12
time step continuity errors : sum local = 3.01505e-17, global = -1.30241e-19, cumulative = -2.63538e-18
Pressure gradient source: uncorrected Ubar = 1.00001, pressure gradient = 0.303709
ExecutionTime = 3.73 s  ClockTime = 4 s

Courant Number mean: 0.400005 max: 0.442617
Time = 0.24

PIMPLE: iteration 1
GAMG:  Solving for p, Initial residual = 0.608731, Final residual = 0.0133013, No Iterations 1
time step continuity errors : sum local = 2.98284e-17, global = 1.73126e-20, cumulative = -2.61806e-18
Pressure gradient source: uncorrected Ubar = 1, pressure gradient = 0.30277
GAMG:  Solving for p, Initial residual = 0.460093, Final residual = 0.0101563, No Iterations 1
time step continuity errors : sum local = 2.98417e-17, global = -2.3713e-19, cumulative = -2.85519e-18
Pressure gradient source: uncorrected Ubar = 1, pressure gradient = 0.301655
GAMG:  Solving for p, Initial residual = 0.456366, Final residual = 7.65755e-07, No Iterations 13
time step continuity errors : sum local = 3.00624e-17, global = -1.71285e-19, cumulative = -3.02648e-18
Pressure gradient source: uncorrected Ubar = 1.00001, pressure gradient = 0.30098
ExecutionTime = 3.79 s  ClockTime = 4 s

Courant Number mean: 0.400004 max: 0.443114
Time = 0.245

PIMPLE: iteration 1
GAMG:  Solving for p, Initial residual = 0.606018, Final residual = 0.010356, No Iterations 1
time step continuity errors : sum local = 3.01027e-17, global = 9.89896e-21, cumulative = -3.01658e-18
Pressure gradient source: uncorrected Ubar = 1, pressure gradient = 0.30007
GAMG:  Solving for p, Initial residual = 0.455619, Final residual = 0.00966695, No Iterations 1
time step continuity errors : sum local = 2.98747e-17, global = -1.01259e-19, cumulative = -3.11784e-18
Pressure gradient source: uncorrected Ubar = 1, pressure gradient = 0.298992
GAMG:  Solving for p, Initial residual = 0.463305, Final residual = 8.80334e-07, No Iterations 18
time step continuity errors : sum local = 2.97589e-17, global = -1.35541e-19, cumulative = -3.25338e-18
Pressure gradient source: uncorrected Ubar = 1.00001, pressure gradient = 0.298337
ExecutionTime = 3.87 s  ClockTime = 4 s

Courant Number mean: 0.400004 max: 0.443605
Time = 0.25

PIMPLE: iteration 1
GAMG:  Solving for p, Initial residual = 0.608468, Final residual = 0.0119459, No Iterations 1
time step continuity errors : sum local = 2.95956e-17, global = 1.84759e-19, cumulative = -3.06862e-18
Pressure gradient source: uncorrected Ubar = 1, pressure gradient = 0.297456
GAMG:  Solving for p, Initial residual = 0.456783, Final residual = 0.00873877, No Iterations 1
time step continuity errors : sum local = 2.95021e-17, global = 8.48646e-20, cumulative = -2.98376e-18
Pressure gradient source: uncorrected Ubar = 1, pressure gradient = 0.296412
GAMG:  Solving for p, Initial residual = 0.459723, Final residual = 8.85626e-07, No Iterations 15
time step continuity errors : sum local = 2.9529e-17, global = -1.3399e-19, cumulative = -3.11775e-18
Pressure gradient source: uncorrected Ubar = 1.00001, pressure gradient = 0.295777
ExecutionTime = 3.93 s  ClockTime = 4 s

Courant Number mean: 0.400004 max: 0.444093
Time = 0.255

PIMPLE: iteration 1
GAMG:  Solving for p, Initial residual = 0.596935, Final residual = 0.0130735, No Iterations 1
time step continuity errors : sum local = 2.94662e-17, global = -1.44861e-19, cumulative = -3.26261e-18
Pressure gradient source: uncorrected Ubar = 1, pressure gradient = 0.294924
GAMG:  Solving for p, Initial residual = 0.461659, Final residual = 0.00914629, No Iterations 1
time step continuity errors : sum local = 3.00847e-17, global = -1.28229e-19, cumulative = -3.39084e-18
Pressure gradient source: uncorrected Ubar = 1, pressure gradient = 0.293911
GAMG:  Solving for p, Initial residual = 0.448812, Final residual = 8.98559e-07, No Iterations 12
time step continuity errors : sum local = 3.02213e-17, global = -1.75637e-19, cumulative = -3.56647e-18
Pressure gradient source: uncorrected Ubar = 1.00001, pressure gradient = 0.293296
ExecutionTime = 3.99 s  ClockTime = 4 s

Courant Number mean: 0.400004 max: 0.444576
Time = 0.26

PIMPLE: iteration 1
GAMG:  Solving for p, Initial residual = 0.608913, Final residual = 0.014082, No Iterations 1
time step continuity errors : sum local = 3.03058e-17, global = -1.93628e-20, cumulative = -3.58584e-18
Pressure gradient source: uncorrected Ubar = 1, pressure gradient = 0.292468
GAMG:  Solving for p, Initial residual = 0.455398, Final residual = 0.00944332, No Iterations 1
time step continuity errors : sum local = 2.99164e-17, global = 1.14475e-19, cumulative = -3.47136e-18
Pressure gradient source: uncorrected Ubar = 1, pressure gradient = 0.291486
GAMG:  Solving for p, Initial residual = 0.459337, Final residual = 3.29635e-07, No Iterations 14
time step continuity errors : sum local = 2.99954e-17, global = 1.99456e-20, cumulative = -3.45142e-18
Pressure gradient source: uncorrected Ubar = 1.00001, pressure gradient = 0.290889
ExecutionTime = 4.06 s  ClockTime = 4 s

Courant Number mean: 0.400004 max: 0.445056
Time = 0.265

PIMPLE: iteration 1
GAMG:  Solving for p, Initial residual = 0.609365, Final residual = 0.0149847, No Iterations 1
time step continuity errors : sum local = 3.04234e-17, global = 8.42947e-20, cumulative = -3.36712e-18
Pressure gradient source: uncorrected Ubar = 1, pressure gradient = 0.290085
GAMG:  Solving for p, Initial residual = 0.459613, Final residual = 0.00984307, No Iterations 1
time step continuity errors : sum local = 2.98893e-17, global = -1.66296e-19, cumulative = -3.53342e-18
Pressure gradient source: uncorrected Ubar = 1, pressure gradient = 0.289132
GAMG:  Solving for p, Initial residual = 0.466131, Final residual = 9.41002e-07, No Iterations 14
time step continuity errors : sum local = 3.01526e-17, global = -5.90387e-20, cumulative = -3.59246e-18
Pressure gradient source: uncorrected Ubar = 1.00001, pressure gradient = 0.288553
ExecutionTime = 4.12 s  ClockTime = 4 s

Courant Number mean: 0.400004 max: 0.445531
Time = 0.27

PIMPLE: iteration 1
GAMG:  Solving for p, Initial residual = 0.609976, Final residual = 0.0118151, No Iterations 1
time step continuity errors : sum local = 2.9725e-17, global = -2.28461e-20, cumulative = -3.6153e-18
Pressure gradient source: uncorrected Ubar = 1, pressure gradient = 0.287773
GAMG:  Solving for p, Initial residual = 0.460835, Final residual = 0.010021, No Iterations 1
time step continuity errors : sum local = 2.99612e-17, global = 3.682e-21, cumulative = -3.61162e-18
Pressure gradient source: uncorrected Ubar = 1, pressure gradient = 0.286847
GAMG:  Solving for p, Initial residual = 0.461096, Final residual = 7.02888e-07, No Iterations 10
time step continuity errors : sum local = 3.01113e-17, global = -1.99723e-19, cumulative = -3.81134e-18
Pressure gradient source: uncorrected Ubar = 1, pressure gradient = 0.286284
ExecutionTime = 4.17 s  ClockTime = 4 s

Courant Number mean: 0.400004 max: 0.446003
Time = 0.275

PIMPLE: iteration 1
GAMG:  Solving for p, Initial residual = 0.607256, Final residual = 0.0131677, No Iterations 1
time step continuity errors : sum local = 2.99707e-17, global = -7.93515e-20, cumulative = -3.89069e-18
Pressure gradient source: uncorrected Ubar = 1, pressure gradient = 0.285526
GAMG:  Solving for p, Initial residual = 0.465307, Final residual = 0.00739894, No Iterations 1
time step continuity errors : sum local = 3.00644e-17, global = 2.97674e-20, cumulative = -3.86093e-18
Pressure gradient source: uncorrected Ubar = 1, pressure gradient = 0.284627
GAMG:  Solving for p, Initial residual = 0.460774, Final residual = 9.65599e-07, No Iterations 14
time step continuity errors : sum local = 2.98062e-17, global = 2.72229e-19, cumulative = -3.5887e-18
Pressure gradient source: uncorrected Ubar = 1, pressure gradient = 0.28408
ExecutionTime = 4.24 s  ClockTime = 4 s

Courant Number mean: 0.400004 max: 0.446471
Time = 0.28

PIMPLE: iteration 1
GAMG:  Solving for p, Initial residual = 0.598043, Final residual = 0.0122437, No Iterations 1
time step continuity errors : sum local = 3.03574e-17, global = -2.37299e-19, cumulative = -3.826e-18
Pressure gradient source: uncorrected Ubar = 1, pressure gradient = 0.283343
GAMG:  Solving for p, Initial residual = 0.453396, Final residual = 0.00886429, No Iterations 1
time step continuity errors : sum local = 3.0247e-17, global = -3.55511e-19, cumulative = -4.18151e-18
Pressure gradient source: uncorrected Ubar = 1, pressure gradient = 0.282469
GAMG:  Solving for p, Initial residual = 0.460475, Final residual = 3.06434e-07, No Iterations 14
time step continuity errors : sum local = 3.03587e-17, global = -1.58965e-19, cumulative = -4.34047e-18
Pressure gradient source: uncorrected Ubar = 1, pressure gradient = 0.281937
ExecutionTime = 4.3 s  ClockTime = 4 s

Courant Number mean: 0.400003 max: 0.446936
Time = 0.285

PIMPLE: iteration 1
GAMG:  Solving for p, Initial residual = 0.60079, Final residual = 0.0127412, No Iterations 1
time step continuity errors : sum local = 2.98048e-17, global = -8.65359e-21, cumulative = -4.34913e-18
Pressure gradient source: uncorrected Ubar = 1, pressure gradient = 0.281221
GAMG:  Solving for p, Initial residual = 0.451869, Final residual = 0.00915437, No Iterations 1
time step continuity errors : sum local = 3.01981e-17, global = 3.1032e-19, cumulative = -4.03881e-18
Pressure gradient source: uncorrected Ubar = 1, pressure gradient = 0.28037
GAMG:  Solving for p, Initial residual = 0.460446, Final residual = 5.24936e-07, No Iterations 10
time step continuity errors : sum local = 3.00561e-17, global = 1.62097e-19, cumulative = -3.87671e-18
Pressure gradient source: uncorrected Ubar = 1, pressure gradient = 0.279853
ExecutionTime = 4.35 s  ClockTime = 4 s

Courant Number mean: 0.400003 max: 0.447397
Time = 0.29

PIMPLE: iteration 1
GAMG:  Solving for p, Initial residual = 0.59884, Final residual = 0.0136991, No Iterations 1
time step continuity errors : sum local = 2.96405e-17, global = -2.91058e-20, cumulative = -3.90582e-18
Pressure gradient source: uncorrected Ubar = 1, pressure gradient = 0.279156
GAMG:  Solving for p, Initial residual = 0.465657, Final residual = 0.00968071, No Iterations 1
time step continuity errors : sum local = 2.94594e-17, global = -1.379e-20, cumulative = -3.91961e-18
Pressure gradient source: uncorrected Ubar = 1, pressure gradient = 0.278329
GAMG:  Solving for p, Initial residual = 0.465378, Final residual = 3.45871e-07, No Iterations 11
time step continuity errors : sum local = 2.99321e-17, global = -2.54652e-19, cumulative = -4.17426e-18
Pressure gradient source: uncorrected Ubar = 1, pressure gradient = 0.277825
ExecutionTime = 4.41 s  ClockTime = 4 s

Courant Number mean: 0.400003 max: 0.447855
Time = 0.295

PIMPLE: iteration 1
GAMG:  Solving for p, Initial residual = 0.609286, Final residual = 0.0135321, No Iterations 1
time step continuity errors : sum local = 2.97762e-17, global = 2.50499e-19, cumulative = -3.92376e-18
Pressure gradient source: uncorrected Ubar = 1, pressure gradient = 0.277146
GAMG:  Solving for p, Initial residual = 0.464511, Final residual = 0.00931991, No Iterations 1
time step continuity errors : sum local = 2.96964e-17, global = 2.05423e-19, cumulative = -3.71834e-18
Pressure gradient source: uncorrected Ubar = 1, pressure gradient = 0.276341
GAMG:  Solving for p, Initial residual = 0.461334, Final residual = 3.3795e-07, No Iterations 16
time step continuity errors : sum local = 2.96381e-17, global = -1.26609e-19, cumulative = -3.84494e-18
Pressure gradient source: uncorrected Ubar = 1, pressure gradient = 0.27585
ExecutionTime = 4.48 s  ClockTime = 4 s

Courant Number mean: 0.400003 max: 0.44831
Time = 0.3

PIMPLE: iteration 1
GAMG:  Solving for p, Initial residual = 0.600468, Final residual = 0.0147605, No Iterations 1
time step continuity errors : sum local = 2.91248e-17, global = -4.93253e-21, cumulative = -3.84988e-18
Pressure gradient source: uncorrected Ubar = 1, pressure gradient = 0.275189
GAMG:  Solving for p, Initial residual = 0.454864, Final residual = 0.00804895, No Iterations 1
time step continuity errors : sum local = 2.92744e-17, global = 7.40346e-20, cumulative = -3.77584e-18
Pressure gradient source: uncorrected Ubar = 1, pressure gradient = 0.274405
GAMG:  Solving for p, Initial residual = 0.453267, Final residual = 9.72357e-07, No Iterations 12
time step continuity errors : sum local = 2.95021e-17, global = 1.71454e-19, cumulative = -3.60439e-18
Pressure gradient source: uncorrected Ubar = 1, pressure gradient = 0.273927
ExecutionTime = 4.54 s  ClockTime = 4 s

Courant Number mean: 0.400003 max: 0.448761
Time = 0.305

PIMPLE: iteration 1
GAMG:  Solving for p, Initial residual = 0.603365, Final residual = 0.0134867, No Iterations 1
time step continuity errors : sum local = 2.92139e-17, global = -2.69773e-21, cumulative = -3.60709e-18
Pressure gradient source: uncorrected Ubar = 1, pressure gradient = 0.273283
GAMG:  Solving for p, Initial residual = 0.455963, Final residual = 0.00877314, No Iterations 1
time step continuity errors : sum local = 2.95607e-17, global = -7.54772e-20, cumulative = -3.68256e-18
Pressure gradient source: uncorrected Ubar = 1, pressure gradient = 0.272519
GAMG:  Solving for p, Initial residual = 0.455767, Final residual = 3.80729e-07, No Iterations 13
time step continuity errors : sum local = 2.97192e-17, global = 1.50195e-20, cumulative = -3.66754e-18
Pressure gradient source: uncorrected Ubar = 1, pressure gradient = 0.272053
ExecutionTime = 4.6 s  ClockTime = 5 s

Courant Number mean: 0.400003 max: 0.449209
Time = 0.31

PIMPLE: iteration 1
GAMG:  Solving for p, Initial residual = 0.593519, Final residual = 0.0111251, No Iterations 1
time step continuity errors : sum local = 2.96046e-17, global = -1.41418e-19, cumulative = -3.80896e-18
Pressure gradient source: uncorrected Ubar = 1, pressure gradient = 0.271425
GAMG:  Solving for p, Initial residual = 0.462184, Final residual = 0.00852524, No Iterations 1
time step continuity errors : sum local = 2.95457e-17, global = -1.13829e-19, cumulative = -3.92279e-18
Pressure gradient source: uncorrected Ubar = 1, pressure gradient = 0.27068
GAMG:  Solving for p, Initial residual = 0.466258, Final residual = 9.27887e-07, No Iterations 9
time step continuity errors : sum local = 2.9732e-17, global = 1.55957e-19, cumulative = -3.76683e-18
Pressure gradient source: uncorrected Ubar = 1, pressure gradient = 0.270226
ExecutionTime = 4.66 s  ClockTime = 5 s

Courant Number mean: 0.400003 max: 0.449655
Time = 0.315

PIMPLE: iteration 1
GAMG:  Solving for p, Initial residual = 0.602522, Final residual = 0.012966, No Iterations 1
time step continuity errors : sum local = 2.97007e-17, global = 6.3414e-20, cumulative = -3.70342e-18
Pressure gradient source: uncorrected Ubar = 1, pressure gradient = 0.269614
GAMG:  Solving for p, Initial residual = 0.466064, Final residual = 0.0101431, No Iterations 1
time step continuity errors : sum local = 2.98273e-17, global = -3.04133e-19, cumulative = -4.00755e-18
Pressure gradient source: uncorrected Ubar = 1, pressure gradient = 0.268888
GAMG:  Solving for p, Initial residual = 0.45885, Final residual = 7.31751e-07, No Iterations 13
time step continuity errors : sum local = 2.96356e-17, global = -3.19364e-19, cumulative = -4.32692e-18
Pressure gradient source: uncorrected Ubar = 1, pressure gradient = 0.268444
ExecutionTime = 4.72 s  ClockTime = 5 s

Courant Number mean: 0.400003 max: 0.450097
Time = 0.32

PIMPLE: iteration 1
GAMG:  Solving for p, Initial residual = 0.605751, Final residual = 0.0127289, No Iterations 1
time step continuity errors : sum local = 2.97905e-17, global = 5.23894e-21, cumulative = -4.32168e-18
Pressure gradient source: uncorrected Ubar = 1, pressure gradient = 0.267847
GAMG:  Solving for p, Initial residual = 0.459031, Final residual = 0.0096433, No Iterations 1
time step continuity errors : sum local = 2.97638e-17, global = -4.09834e-20, cumulative = -4.36266e-18
Pressure gradient source: uncorrected Ubar = 1, pressure gradient = 0.267139
GAMG:  Solving for p, Initial residual = 0.471801, Final residual = 5.89586e-07, No Iterations 9
time step continuity errors : sum local = 3.01082e-17, global = -1.74653e-19, cumulative = -4.53731e-18
Pressure gradient source: uncorrected Ubar = 1, pressure gradient = 0.266706
ExecutionTime = 4.77 s  ClockTime = 5 s

Courant Number mean: 0.400003 max: 0.450537
Time = 0.325

PIMPLE: iteration 1
GAMG:  Solving for p, Initial residual = 0.596402, Final residual = 0.014165, No Iterations 1
time step continuity errors : sum local = 2.97001e-17, global = 1.04243e-19, cumulative = -4.43307e-18
Pressure gradient source: uncorrected Ubar = 1, pressure gradient = 0.266123
GAMG:  Solving for p, Initial residual = 0.472026, Final residual = 0.0132412, No Iterations 1
time step continuity errors : sum local = 2.9949e-17, global = -1.04933e-19, cumulative = -4.53801e-18
Pressure gradient source: uncorrected Ubar = 1, pressure gradient = 0.265432
GAMG:  Solving for p, Initial residual = 0.473059, Final residual = 7.2017e-07, No Iterations 14
time step continuity errors : sum local = 2.95266e-17, global = -2.37267e-19, cumulative = -4.77527e-18
Pressure gradient source: uncorrected Ubar = 1, pressure gradient = 0.265009
ExecutionTime = 4.83 s  ClockTime = 5 s

Courant Number mean: 0.400003 max: 0.450973
Time = 0.33

PIMPLE: iteration 1
GAMG:  Solving for p, Initial residual = 0.613554, Final residual = 0.0159938, No Iterations 1
time step continuity errors : sum local = 2.99264e-17, global = -8.39256e-20, cumulative = -4.8592e-18
Pressure gradient source: uncorrected Ubar = 1, pressure gradient = 0.264441
GAMG:  Solving for p, Initial residual = 0.470222, Final residual = 0.01139, No Iterations 1
time step continuity errors : sum local = 2.92616e-17, global = 5.97889e-20, cumulative = -4.79941e-18
Pressure gradient source: uncorrected Ubar = 1, pressure gradient = 0.263765
GAMG:  Solving for p, Initial residual = 0.46393, Final residual = 1.00799e-07, No Iterations 13
time step continuity errors : sum local = 2.95478e-17, global = 5.69109e-20, cumulative = -4.7425e-18
Pressure gradient source: uncorrected Ubar = 1, pressure gradient = 0.263353
ExecutionTime = 4.89 s  ClockTime = 5 s

Courant Number mean: 0.400003 max: 0.451407
Time = 0.335

PIMPLE: iteration 1
GAMG:  Solving for p, Initial residual = 0.61003, Final residual = 0.014383, No Iterations 1
time step continuity errors : sum local = 2.96953e-17, global = -2.52201e-19, cumulative = -4.9947e-18
Pressure gradient source: uncorrected Ubar = 1, pressure gradient = 0.262797
GAMG:  Solving for p, Initial residual = 0.473446, Final residual = 0.0119232, No Iterations 1
time step continuity errors : sum local = 2.98807e-17, global = -1.87599e-19, cumulative = -5.1823e-18
Pressure gradient source: uncorrected Ubar = 1, pressure gradient = 0.262138
GAMG:  Solving for p, Initial residual = 0.464513, Final residual = 4.9439e-07, No Iterations 12
time step continuity errors : sum local = 2.96209e-17, global = -1.63143e-19, cumulative = -5.34544e-18
Pressure gradient source: uncorrected Ubar = 1, pressure gradient = 0.261735
ExecutionTime = 4.95 s  ClockTime = 5 s

Courant Number mean: 0.400003 max: 0.451839
Time = 0.34

PIMPLE: iteration 1
GAMG:  Solving for p, Initial residual = 0.606654, Final residual = 0.0162439, No Iterations 1
time step continuity errors : sum local = 2.97649e-17, global = -2.30077e-19, cumulative = -5.57552e-18
Pressure gradient source: uncorrected Ubar = 1, pressure gradient = 0.261192
GAMG:  Solving for p, Initial residual = 0.463793, Final residual = 0.0128192, No Iterations 1
time step continuity errors : sum local = 2.98405e-17, global = 3.95529e-20, cumulative = -5.53597e-18
Pressure gradient source: uncorrected Ubar = 1, pressure gradient = 0.260548
GAMG:  Solving for p, Initial residual = 0.467109, Final residual = 2.46191e-07, No Iterations 12
time step continuity errors : sum local = 2.94433e-17, global = -1.30016e-20, cumulative = -5.54897e-18
Pressure gradient source: uncorrected Ubar = 1, pressure gradient = 0.260154
ExecutionTime = 5.01 s  ClockTime = 5 s

Courant Number mean: 0.400003 max: 0.452267
Time = 0.345

PIMPLE: iteration 1
GAMG:  Solving for p, Initial residual = 0.612063, Final residual = 0.0159558, No Iterations 1
time step continuity errors : sum local = 2.9908e-17, global = 2.67894e-19, cumulative = -5.28107e-18
Pressure gradient source: uncorrected Ubar = 1, pressure gradient = 0.259624
GAMG:  Solving for p, Initial residual = 0.46682, Final residual = 0.0140504, No Iterations 1
time step continuity errors : sum local = 2.98113e-17, global = -8.18913e-21, cumulative = -5.28926e-18
Pressure gradient source: uncorrected Ubar = 1, pressure gradient = 0.258994
GAMG:  Solving for p, Initial residual = 0.449014, Final residual = 1.4244e-07, No Iterations 14
time step continuity errors : sum local = 2.90859e-17, global = -1.54756e-19, cumulative = -5.44402e-18
Pressure gradient source: uncorrected Ubar = 1, pressure gradient = 0.258609
ExecutionTime = 5.08 s  ClockTime = 5 s

Courant Number mean: 0.400002 max: 0.452693
Time = 0.35

PIMPLE: iteration 1
GAMG:  Solving for p, Initial residual = 0.61093, Final residual = 0.0159563, No Iterations 1
time step continuity errors : sum local = 3.00607e-17, global = -1.38558e-19, cumulative = -5.58258e-18
Pressure gradient source: uncorrected Ubar = 1, pressure gradient = 0.25809
GAMG:  Solving for p, Initial residual = 0.467173, Final residual = 0.0129065, No Iterations 1
time step continuity errors : sum local = 3.01304e-17, global = 1.57317e-19, cumulative = -5.42526e-18
Pressure gradient source: uncorrected Ubar = 1, pressure gradient = 0.257475
GAMG:  Solving for p, Initial residual = 0.46368, Final residual = 3.85794e-07, No Iterations 14
time step continuity errors : sum local = 2.95326e-17, global = 3.00049e-19, cumulative = -5.12521e-18
Pressure gradient source: uncorrected Ubar = 1, pressure gradient = 0.257098
ExecutionTime = 5.14 s  ClockTime = 5 s

Courant Number mean: 0.400002 max: 0.453117
Time = 0.355

PIMPLE: iteration 1
GAMG:  Solving for p, Initial residual = 0.611819, Final residual = 0.0132933, No Iterations 1
time step continuity errors : sum local = 2.95348e-17, global = -1.09211e-19, cumulative = -5.23442e-18
Pressure gradient source: uncorrected Ubar = 1, pressure gradient = 0.256591
GAMG:  Solving for p, Initial residual = 0.474403, Final residual = 0.0104093, No Iterations 1
time step continuity errors : sum local = 2.96335e-17, global = -5.73495e-20, cumulative = -5.29177e-18
Pressure gradient source: uncorrected Ubar = 1, pressure gradient = 0.255989
GAMG:  Solving for p, Initial residual = 0.475185, Final residual = 6.50868e-07, No Iterations 11
time step continuity errors : sum local = 2.91808e-17, global = 1.19187e-20, cumulative = -5.27985e-18
Pressure gradient source: uncorrected Ubar = 1, pressure gradient = 0.255621
ExecutionTime = 5.19 s  ClockTime = 5 s

Courant Number mean: 0.400002 max: 0.453538
Time = 0.36

PIMPLE: iteration 1
GAMG:  Solving for p, Initial residual = 0.613835, Final residual = 0.0132823, No Iterations 1
time step continuity errors : sum local = 2.93732e-17, global = 7.45014e-20, cumulative = -5.20535e-18
Pressure gradient source: uncorrected Ubar = 1, pressure gradient = 0.255125
GAMG:  Solving for p, Initial residual = 0.465931, Final residual = 0.0102979, No Iterations 1
time step continuity errors : sum local = 2.96008e-17, global = 1.16203e-19, cumulative = -5.08915e-18
Pressure gradient source: uncorrected Ubar = 1, pressure gradient = 0.254536
GAMG:  Solving for p, Initial residual = 0.465327, Final residual = 7.06374e-07, No Iterations 13
time step continuity errors : sum local = 2.94535e-17, global = -1.00746e-19, cumulative = -5.18989e-18
Pressure gradient source: uncorrected Ubar = 1, pressure gradient = 0.254175
ExecutionTime = 5.26 s  ClockTime = 5 s

Courant Number mean: 0.400002 max: 0.453957
Time = 0.365

PIMPLE: iteration 1
GAMG:  Solving for p, Initial residual = 0.615839, Final residual = 0.0110933, No Iterations 1
time step continuity errors : sum local = 2.93368e-17, global = -2.03566e-19, cumulative = -5.39346e-18
Pressure gradient source: uncorrected Ubar = 1, pressure gradient = 0.25369
GAMG:  Solving for p, Initial residual = 0.476251, Final residual = 0.00839015, No Iterations 1
time step continuity errors : sum local = 2.92701e-17, global = -3.27195e-19, cumulative = -5.72066e-18
Pressure gradient source: uncorrected Ubar = 1, pressure gradient = 0.253114
GAMG:  Solving for p, Initial residual = 0.473447, Final residual = 8.37256e-07, No Iterations 13
time step continuity errors : sum local = 2.97147e-17, global = -1.48714e-19, cumulative = -5.86937e-18
Pressure gradient source: uncorrected Ubar = 1, pressure gradient = 0.252761
ExecutionTime = 5.32 s  ClockTime = 5 s

Courant Number mean: 0.400002 max: 0.454373
Time = 0.37

PIMPLE: iteration 1
GAMG:  Solving for p, Initial residual = 0.595963, Final residual = 0.0103999, No Iterations 1
time step continuity errors : sum local = 2.9302e-17, global = 1.36351e-19, cumulative = -5.73302e-18
Pressure gradient source: uncorrected Ubar = 1, pressure gradient = 0.252286
GAMG:  Solving for p, Initial residual = 0.471817, Final residual = 0.00921784, No Iterations 1
time step continuity errors : sum local = 2.9298e-17, global = -1.63543e-19, cumulative = -5.89656e-18
Pressure gradient source: uncorrected Ubar = 1, pressure gradient = 0.251721
GAMG:  Solving for p, Initial residual = 0.480394, Final residual = 4.79088e-07, No Iterations 12
time step continuity errors : sum local = 2.89718e-17, global = -3.2651e-19, cumulative = -6.22307e-18
Pressure gradient source: uncorrected Ubar = 1, pressure gradient = 0.251376
ExecutionTime = 5.38 s  ClockTime = 5 s

Courant Number mean: 0.400002 max: 0.454788
Time = 0.375

PIMPLE: iteration 1
GAMG:  Solving for p, Initial residual = 0.607591, Final residual = 0.0117499, No Iterations 1
time step continuity errors : sum local = 2.90573e-17, global = 6.9244e-20, cumulative = -6.15383e-18
Pressure gradient source: uncorrected Ubar = 1, pressure gradient = 0.250911
GAMG:  Solving for p, Initial residual = 0.470198, Final residual = 0.00893477, No Iterations 1
time step continuity errors : sum local = 2.93427e-17, global = -9.67774e-20, cumulative = -6.25061e-18
Pressure gradient source: uncorrected Ubar = 1, pressure gradient = 0.250358
GAMG:  Solving for p, Initial residual = 0.466485, Final residual = 1.325e-07, No Iterations 15
time step continuity errors : sum local = 2.91663e-17, global = 7.12693e-20, cumulative = -6.17934e-18
Pressure gradient source: uncorrected Ubar = 1, pressure gradient = 0.25002
ExecutionTime = 5.44 s  ClockTime = 5 s

Courant Number mean: 0.400002 max: 0.455199
Time = 0.38

PIMPLE: iteration 1
GAMG:  Solving for p, Initial residual = 0.604028, Final residual = 0.0119307, No Iterations 1
time step continuity errors : sum local = 2.92625e-17, global = 6.15796e-20, cumulative = -6.11776e-18
Pressure gradient source: uncorrected Ubar = 1, pressure gradient = 0.249564
GAMG:  Solving for p, Initial residual = 0.463166, Final residual = 0.00897654, No Iterations 1
time step continuity errors : sum local = 2.91913e-17, global = -8.68367e-20, cumulative = -6.20459e-18
Pressure gradient source: uncorrected Ubar = 1, pressure gradient = 0.249023
GAMG:  Solving for p, Initial residual = 0.467689, Final residual = 5.07506e-07, No Iterations 12
time step continuity errors : sum local = 2.9076e-17, global = -3.4207e-21, cumulative = -6.20801e-18
Pressure gradient source: uncorrected Ubar = 1, pressure gradient = 0.248692
ExecutionTime = 5.5 s  ClockTime = 5 s

Courant Number mean: 0.400002 max: 0.455609
Time = 0.385

PIMPLE: iteration 1
GAMG:  Solving for p, Initial residual = 0.604703, Final residual = 0.0117129, No Iterations 1
time step continuity errors : sum local = 2.91196e-17, global = -6.2411e-20, cumulative = -6.27043e-18
Pressure gradient source: uncorrected Ubar = 1, pressure gradient = 0.248246
GAMG:  Solving for p, Initial residual = 0.469177, Final residual = 0.00879454, No Iterations 1
time step continuity errors : sum local = 2.88886e-17, global = -1.32061e-19, cumulative = -6.40249e-18
Pressure gradient source: uncorrected Ubar = 1, pressure gradient = 0.247716
GAMG:  Solving for p, Initial residual = 0.467472, Final residual = 9.89956e-07, No Iterations 9
time step continuity errors : sum local = 2.92721e-17, global = -8.34859e-20, cumulative = -6.48597e-18
Pressure gradient source: uncorrected Ubar = 1, pressure gradient = 0.247391
ExecutionTime = 5.56 s  ClockTime = 5 s

Courant Number mean: 0.400002 max: 0.456017
Time = 0.39

PIMPLE: iteration 1
GAMG:  Solving for p, Initial residual = 0.614964, Final residual = 0.0123576, No Iterations 1
time step continuity errors : sum local = 2.92298e-17, global = 1.25628e-20, cumulative = -6.47341e-18
Pressure gradient source: uncorrected Ubar = 1, pressure gradient = 0.246953
GAMG:  Solving for p, Initial residual = 0.474156, Final residual = 0.00845215, No Iterations 1
time step continuity errors : sum local = 2.91938e-17, global = 2.34824e-19, cumulative = -6.23859e-18
Pressure gradient source: uncorrected Ubar = 1, pressure gradient = 0.246434
GAMG:  Solving for p, Initial residual = 0.474033, Final residual = 6.44781e-07, No Iterations 16
time step continuity errors : sum local = 2.95646e-17, global = 1.4797e-20, cumulative = -6.22379e-18
Pressure gradient source: uncorrected Ubar = 1, pressure gradient = 0.246116
ExecutionTime = 5.62 s  ClockTime = 6 s

Courant Number mean: 0.400002 max: 0.456422
Time = 0.395

PIMPLE: iteration 1
GAMG:  Solving for p, Initial residual = 0.614774, Final residual = 0.0139472, No Iterations 1
time step continuity errors : sum local = 2.95395e-17, global = 1.10932e-19, cumulative = -6.11286e-18
Pressure gradient source: uncorrected Ubar = 1, pressure gradient = 0.245687
GAMG:  Solving for p, Initial residual = 0.465584, Final residual = 0.00814409, No Iterations 1
time step continuity errors : sum local = 2.95822e-17, global = -8.17914e-20, cumulative = -6.19465e-18
Pressure gradient source: uncorrected Ubar = 1, pressure gradient = 0.245178
GAMG:  Solving for p, Initial residual = 0.465852, Final residual = 6.8006e-07, No Iterations 15
time step continuity errors : sum local = 2.95495e-17, global = -3.77741e-20, cumulative = -6.23242e-18
Pressure gradient source: uncorrected Ubar = 1, pressure gradient = 0.244866
ExecutionTime = 5.69 s  ClockTime = 6 s

Courant Number mean: 0.400002 max: 0.456826
Time = 0.4

PIMPLE: iteration 1
GAMG:  Solving for p, Initial residual = 0.619252, Final residual = 0.0134899, No Iterations 1
time step continuity errors : sum local = 2.96227e-17, global = -1.56681e-19, cumulative = -6.3891e-18
Pressure gradient source: uncorrected Ubar = 1, pressure gradient = 0.244445
GAMG:  Solving for p, Initial residual = 0.467354, Final residual = 0.0104918, No Iterations 1
time step continuity errors : sum local = 2.93765e-17, global = -9.5465e-20, cumulative = -6.48457e-18
Pressure gradient source: uncorrected Ubar = 1, pressure gradient = 0.243946
GAMG:  Solving for p, Initial residual = 0.471456, Final residual = 6.99401e-07, No Iterations 14
time step continuity errors : sum local = 2.93489e-17, global = 1.00721e-19, cumulative = -6.38385e-18
Pressure gradient source: uncorrected Ubar = 1, pressure gradient = 0.24364
ExecutionTime = 5.76 s  ClockTime = 6 s

Courant Number mean: 0.400002 max: 0.457227
Time = 0.405

PIMPLE: iteration 1
GAMG:  Solving for p, Initial residual = 0.624066, Final residual = 0.0129446, No Iterations 1
time step continuity errors : sum local = 2.94874e-17, global = -2.74704e-19, cumulative = -6.65855e-18
Pressure gradient source: uncorrected Ubar = 1, pressure gradient = 0.243228
GAMG:  Solving for p, Initial residual = 0.477261, Final residual = 0.00836841, No Iterations 1
time step continuity errors : sum local = 2.95898e-17, global = 1.14643e-19, cumulative = -6.54391e-18
Pressure gradient source: uncorrected Ubar = 1, pressure gradient = 0.242738
GAMG:  Solving for p, Initial residual = 0.468006, Final residual = 6.92423e-07, No Iterations 16
time step continuity errors : sum local = 2.95634e-17, global = 2.7625e-20, cumulative = -6.51628e-18
Pressure gradient source: uncorrected Ubar = 1, pressure gradient = 0.242438
ExecutionTime = 5.82 s  ClockTime = 6 s

Courant Number mean: 0.400002 max: 0.457626
Time = 0.41

PIMPLE: iteration 1
GAMG:  Solving for p, Initial residual = 0.612345, Final residual = 0.0134483, No Iterations 1
time step continuity errors : sum local = 2.95704e-17, global = -1.52205e-19, cumulative = -6.66849e-18
[...]
Pressure gradient source: uncorrected Ubar = 1, pressure gradient = 0.120075
ExecutionTime = 125.28 s  ClockTime = 125 s

Courant Number mean: 0.4 max: 0.5995
Time = 9.9

PIMPLE: iteration 1
GAMG:  Solving for p, Initial residual = 0.621269, Final residual = 0.0138463, No Iterations 1
time step continuity errors : sum local = 2.64496e-17, global = -1.45296e-19, cumulative = -9.9961e-17
Pressure gradient source: uncorrected Ubar = 1, pressure gradient = 0.120075
GAMG:  Solving for p, Initial residual = 0.468998, Final residual = 0.00980872, No Iterations 1
time step continuity errors : sum local = 2.61788e-17, global = 2.98236e-20, cumulative = -9.99311e-17
Pressure gradient source: uncorrected Ubar = 1, pressure gradient = 0.120075
GAMG:  Solving for p, Initial residual = 0.472887, Final residual = 7.25368e-07, No Iterations 13
time step continuity errors : sum local = 2.58407e-17, global = -7.54338e-20, cumulative = -1.00007e-16
Pressure gradient source: uncorrected Ubar = 1, pressure gradient = 0.120075
ExecutionTime = 125.34 s  ClockTime = 125 s

Courant Number mean: 0.4 max: 0.599501
Time = 9.905

PIMPLE: iteration 1
GAMG:  Solving for p, Initial residual = 0.600675, Final residual = 0.0140194, No Iterations 1
time step continuity errors : sum local = 2.60246e-17, global = -3.68617e-19, cumulative = -1.00375e-16
Pressure gradient source: uncorrected Ubar = 1, pressure gradient = 0.120075
GAMG:  Solving for p, Initial residual = 0.454123, Final residual = 0.0104872, No Iterations 1
time step continuity errors : sum local = 2.63456e-17, global = -4.40344e-20, cumulative = -1.00419e-16
Pressure gradient source: uncorrected Ubar = 1, pressure gradient = 0.120074
GAMG:  Solving for p, Initial residual = 0.455034, Final residual = 8.84299e-07, No Iterations 11
time step continuity errors : sum local = 2.59723e-17, global = 6.2837e-20, cumulative = -1.00356e-16
Pressure gradient source: uncorrected Ubar = 1, pressure gradient = 0.120074
ExecutionTime = 125.4 s  ClockTime = 125 s

Courant Number mean: 0.4 max: 0.599502
Time = 9.91

PIMPLE: iteration 1
GAMG:  Solving for p, Initial residual = 0.625788, Final residual = 0.013734, No Iterations 1
time step continuity errors : sum local = 2.58544e-17, global = -8.15096e-20, cumulative = -1.00438e-16
Pressure gradient source: uncorrected Ubar = 1, pressure gradient = 0.120074
GAMG:  Solving for p, Initial residual = 0.468849, Final residual = 0.0110633, No Iterations 1
time step continuity errors : sum local = 2.63747e-17, global = -1.98191e-19, cumulative = -1.00636e-16
Pressure gradient source: uncorrected Ubar = 1, pressure gradient = 0.120074
GAMG:  Solving for p, Initial residual = 0.468375, Final residual = 7.27074e-07, No Iterations 11
time step continuity errors : sum local = 2.60634e-17, global = -4.0059e-20, cumulative = -1.00676e-16
Pressure gradient source: uncorrected Ubar = 1, pressure gradient = 0.120074
ExecutionTime = 125.45 s  ClockTime = 125 s

Courant Number mean: 0.4 max: 0.599503
Time = 9.915

PIMPLE: iteration 1
GAMG:  Solving for p, Initial residual = 0.613959, Final residual = 0.0157235, No Iterations 1
time step continuity errors : sum local = 2.643e-17, global = -1.9964e-19, cumulative = -1.00876e-16
Pressure gradient source: uncorrected Ubar = 1, pressure gradient = 0.120074
GAMG:  Solving for p, Initial residual = 0.462556, Final residual = 0.0118133, No Iterations 1
time step continuity errors : sum local = 2.65715e-17, global = -7.75763e-20, cumulative = -1.00953e-16
Pressure gradient source: uncorrected Ubar = 1, pressure gradient = 0.120074
GAMG:  Solving for p, Initial residual = 0.459829, Final residual = 6.18548e-07, No Iterations 14
time step continuity errors : sum local = 2.64648e-17, global = 1.28732e-19, cumulative = -1.00825e-16
Pressure gradient source: uncorrected Ubar = 1, pressure gradient = 0.120074
ExecutionTime = 125.52 s  ClockTime = 125 s

Courant Number mean: 0.4 max: 0.599505
Time = 9.92

PIMPLE: iteration 1
GAMG:  Solving for p, Initial residual = 0.607559, Final residual = 0.01464, No Iterations 1
time step continuity errors : sum local = 2.61815e-17, global = -1.38186e-20, cumulative = -1.00838e-16
Pressure gradient source: uncorrected Ubar = 1, pressure gradient = 0.120074
GAMG:  Solving for p, Initial residual = 0.465043, Final residual = 0.00778712, No Iterations 1
time step continuity errors : sum local = 2.59535e-17, global = 1.9397e-20, cumulative = -1.00819e-16
Pressure gradient source: uncorrected Ubar = 1, pressure gradient = 0.120073
GAMG:  Solving for p, Initial residual = 0.471311, Final residual = 9.6583e-07, No Iterations 15
time step continuity errors : sum local = 2.60934e-17, global = -3.46617e-20, cumulative = -1.00854e-16
Pressure gradient source: uncorrected Ubar = 1, pressure gradient = 0.120073
ExecutionTime = 125.58 s  ClockTime = 126 s

Courant Number mean: 0.4 max: 0.599506
Time = 9.925

PIMPLE: iteration 1
GAMG:  Solving for p, Initial residual = 0.597083, Final residual = 0.0116134, No Iterations 1
time step continuity errors : sum local = 2.62047e-17, global = 1.10355e-19, cumulative = -1.00743e-16
Pressure gradient source: uncorrected Ubar = 1, pressure gradient = 0.120073
GAMG:  Solving for p, Initial residual = 0.46597, Final residual = 0.00921254, No Iterations 1
time step continuity errors : sum local = 2.63889e-17, global = -4.03012e-20, cumulative = -1.00784e-16
Pressure gradient source: uncorrected Ubar = 1, pressure gradient = 0.120073
GAMG:  Solving for p, Initial residual = 0.463981, Final residual = 3.01284e-07, No Iterations 12
time step continuity errors : sum local = 2.5916e-17, global = 4.41317e-20, cumulative = -1.0074e-16
Pressure gradient source: uncorrected Ubar = 1, pressure gradient = 0.120073
ExecutionTime = 125.64 s  ClockTime = 126 s

Courant Number mean: 0.4 max: 0.599507
Time = 9.93

PIMPLE: iteration 1
GAMG:  Solving for p, Initial residual = 0.605551, Final residual = 0.0130171, No Iterations 1
time step continuity errors : sum local = 2.62379e-17, global = -1.59108e-19, cumulative = -1.00899e-16
Pressure gradient source: uncorrected Ubar = 1, pressure gradient = 0.120073
GAMG:  Solving for p, Initial residual = 0.462482, Final residual = 0.00830551, No Iterations 1
time step continuity errors : sum local = 2.59012e-17, global = -1.21926e-19, cumulative = -1.01021e-16
Pressure gradient source: uncorrected Ubar = 1, pressure gradient = 0.120073
GAMG:  Solving for p, Initial residual = 0.467954, Final residual = 8.03743e-07, No Iterations 16
time step continuity errors : sum local = 2.63062e-17, global = -6.92474e-20, cumulative = -1.0109e-16
Pressure gradient source: uncorrected Ubar = 1, pressure gradient = 0.120073
ExecutionTime = 125.71 s  ClockTime = 126 s

Courant Number mean: 0.4 max: 0.599508
Time = 9.935

PIMPLE: iteration 1
GAMG:  Solving for p, Initial residual = 0.60077, Final residual = 0.0125394, No Iterations 1
time step continuity errors : sum local = 2.61637e-17, global = -9.21131e-20, cumulative = -1.01182e-16
Pressure gradient source: uncorrected Ubar = 1, pressure gradient = 0.120072
GAMG:  Solving for p, Initial residual = 0.465283, Final residual = 0.00960062, No Iterations 1
time step continuity errors : sum local = 2.6038e-17, global = 1.64981e-21, cumulative = -1.0118e-16
Pressure gradient source: uncorrected Ubar = 1, pressure gradient = 0.120072
GAMG:  Solving for p, Initial residual = 0.464696, Final residual = 8.74835e-07, No Iterations 13
time step continuity errors : sum local = 2.63566e-17, global = -1.95976e-20, cumulative = -1.012e-16
Pressure gradient source: uncorrected Ubar = 1, pressure gradient = 0.120072
ExecutionTime = 125.77 s  ClockTime = 126 s

Courant Number mean: 0.4 max: 0.599509
Time = 9.94

PIMPLE: iteration 1
GAMG:  Solving for p, Initial residual = 0.606647, Final residual = 0.0122963, No Iterations 1
time step continuity errors : sum local = 2.62831e-17, global = 2.16764e-19, cumulative = -1.00983e-16
Pressure gradient source: uncorrected Ubar = 1, pressure gradient = 0.120072
GAMG:  Solving for p, Initial residual = 0.467557, Final residual = 0.00861287, No Iterations 1
time step continuity errors : sum local = 2.5914e-17, global = -4.77752e-20, cumulative = -1.01031e-16
Pressure gradient source: uncorrected Ubar = 1, pressure gradient = 0.120072
GAMG:  Solving for p, Initial residual = 0.461882, Final residual = 7.18647e-07, No Iterations 14
time step continuity errors : sum local = 2.63929e-17, global = -1.28199e-19, cumulative = -1.01159e-16
Pressure gradient source: uncorrected Ubar = 1, pressure gradient = 0.120072
ExecutionTime = 125.84 s  ClockTime = 126 s

Courant Number mean: 0.4 max: 0.59951
Time = 9.945

PIMPLE: iteration 1
GAMG:  Solving for p, Initial residual = 0.608235, Final residual = 0.0103782, No Iterations 1
time step continuity errors : sum local = 2.62051e-17, global = -7.53991e-20, cumulative = -1.01234e-16
Pressure gradient source: uncorrected Ubar = 1, pressure gradient = 0.120072
GAMG:  Solving for p, Initial residual = 0.477216, Final residual = 0.00992215, No Iterations 1
time step continuity errors : sum local = 2.59547e-17, global = 8.37025e-22, cumulative = -1.01234e-16
Pressure gradient source: uncorrected Ubar = 1, pressure gradient = 0.120072
GAMG:  Solving for p, Initial residual = 0.480878, Final residual = 6.02116e-07, No Iterations 11
time step continuity errors : sum local = 2.59986e-17, global = 7.38224e-20, cumulative = -1.0116e-16
Pressure gradient source: uncorrected Ubar = 1, pressure gradient = 0.120071
ExecutionTime = 125.9 s  ClockTime = 126 s

Courant Number mean: 0.4 max: 0.599511
Time = 9.95

PIMPLE: iteration 1
GAMG:  Solving for p, Initial residual = 0.607138, Final residual = 0.0121127, No Iterations 1
time step continuity errors : sum local = 2.60305e-17, global = 7.77708e-20, cumulative = -1.01082e-16
Pressure gradient source: uncorrected Ubar = 1, pressure gradient = 0.120071
GAMG:  Solving for p, Initial residual = 0.468162, Final residual = 0.00935268, No Iterations 1
time step continuity errors : sum local = 2.60384e-17, global = 2.26562e-19, cumulative = -1.00855e-16
Pressure gradient source: uncorrected Ubar = 1, pressure gradient = 0.120071
GAMG:  Solving for p, Initial residual = 0.468669, Final residual = 6.45168e-07, No Iterations 14
time step continuity errors : sum local = 2.62601e-17, global = -4.53194e-20, cumulative = -1.00901e-16
Pressure gradient source: uncorrected Ubar = 1, pressure gradient = 0.120071
ExecutionTime = 125.97 s  ClockTime = 126 s

Courant Number mean: 0.4 max: 0.599512
Time = 9.955

PIMPLE: iteration 1
GAMG:  Solving for p, Initial residual = 0.61267, Final residual = 0.013272, No Iterations 1
time step continuity errors : sum local = 2.61785e-17, global = -4.72317e-20, cumulative = -1.00948e-16
Pressure gradient source: uncorrected Ubar = 1, pressure gradient = 0.120071
GAMG:  Solving for p, Initial residual = 0.470882, Final residual = 0.00849329, No Iterations 1
time step continuity errors : sum local = 2.61249e-17, global = -2.05242e-19, cumulative = -1.01153e-16
Pressure gradient source: uncorrected Ubar = 1, pressure gradient = 0.120071
GAMG:  Solving for p, Initial residual = 0.469651, Final residual = 7.98065e-07, No Iterations 12
time step continuity errors : sum local = 2.63025e-17, global = -1.5455e-19, cumulative = -1.01308e-16
Pressure gradient source: uncorrected Ubar = 1, pressure gradient = 0.120071
ExecutionTime = 126.02 s  ClockTime = 126 s

Courant Number mean: 0.4 max: 0.599513
Time = 9.96

PIMPLE: iteration 1
GAMG:  Solving for p, Initial residual = 0.624868, Final residual = 0.0131395, No Iterations 1
time step continuity errors : sum local = 2.59326e-17, global = 4.80646e-20, cumulative = -1.0126e-16
Pressure gradient source: uncorrected Ubar = 1, pressure gradient = 0.120071
GAMG:  Solving for p, Initial residual = 0.46075, Final residual = 0.00854089, No Iterations 1
time step continuity errors : sum local = 2.60048e-17, global = -1.09168e-19, cumulative = -1.01369e-16
Pressure gradient source: uncorrected Ubar = 1, pressure gradient = 0.12007
GAMG:  Solving for p, Initial residual = 0.468188, Final residual = 7.91492e-07, No Iterations 9
time step continuity errors : sum local = 2.62646e-17, global = 1.9834e-19, cumulative = -1.01171e-16
Pressure gradient source: uncorrected Ubar = 1, pressure gradient = 0.12007
ExecutionTime = 126.08 s  ClockTime = 126 s

Courant Number mean: 0.4 max: 0.599514
Time = 9.965

PIMPLE: iteration 1
GAMG:  Solving for p, Initial residual = 0.602244, Final residual = 0.0127751, No Iterations 1
time step continuity errors : sum local = 2.62544e-17, global = 4.06903e-20, cumulative = -1.0113e-16
Pressure gradient source: uncorrected Ubar = 1, pressure gradient = 0.12007
GAMG:  Solving for p, Initial residual = 0.478708, Final residual = 0.00845767, No Iterations 1
time step continuity errors : sum local = 2.59626e-17, global = -2.84046e-20, cumulative = -1.01158e-16
Pressure gradient source: uncorrected Ubar = 1, pressure gradient = 0.12007
GAMG:  Solving for p, Initial residual = 0.474445, Final residual = 7.05105e-07, No Iterations 15
time step continuity errors : sum local = 2.61296e-17, global = -2.02311e-19, cumulative = -1.01361e-16
Pressure gradient source: uncorrected Ubar = 1, pressure gradient = 0.12007
ExecutionTime = 126.14 s  ClockTime = 126 s

Courant Number mean: 0.4 max: 0.599515
Time = 9.97

PIMPLE: iteration 1
GAMG:  Solving for p, Initial residual = 0.609504, Final residual = 0.0118194, No Iterations 1
time step continuity errors : sum local = 2.60471e-17, global = -2.44414e-20, cumulative = -1.01385e-16
Pressure gradient source: uncorrected Ubar = 1, pressure gradient = 0.12007
GAMG:  Solving for p, Initial residual = 0.470279, Final residual = 0.00912553, No Iterations 1
time step continuity errors : sum local = 2.6003e-17, global = 8.53728e-20, cumulative = -1.013e-16
Pressure gradient source: uncorrected Ubar = 1, pressure gradient = 0.12007
GAMG:  Solving for p, Initial residual = 0.473598, Final residual = 6.79377e-07, No Iterations 10
time step continuity errors : sum local = 2.60518e-17, global = 6.17642e-20, cumulative = -1.01238e-16
Pressure gradient source: uncorrected Ubar = 1, pressure gradient = 0.12007
ExecutionTime = 126.2 s  ClockTime = 126 s

Courant Number mean: 0.4 max: 0.599516
Time = 9.975

PIMPLE: iteration 1
GAMG:  Solving for p, Initial residual = 0.608354, Final residual = 0.0124045, No Iterations 1
time step continuity errors : sum local = 2.63129e-17, global = 2.45545e-19, cumulative = -1.00992e-16
Pressure gradient source: uncorrected Ubar = 1, pressure gradient = 0.12007
GAMG:  Solving for p, Initial residual = 0.460903, Final residual = 0.00700486, No Iterations 1
time step continuity errors : sum local = 2.59913e-17, global = 9.57299e-20, cumulative = -1.00897e-16
Pressure gradient source: uncorrected Ubar = 1, pressure gradient = 0.120069
GAMG:  Solving for p, Initial residual = 0.476425, Final residual = 7.69489e-07, No Iterations 10
time step continuity errors : sum local = 2.60908e-17, global = -2.17991e-19, cumulative = -1.01115e-16
Pressure gradient source: uncorrected Ubar = 1, pressure gradient = 0.120069
ExecutionTime = 126.25 s  ClockTime = 126 s

Courant Number mean: 0.4 max: 0.599517
Time = 9.98

PIMPLE: iteration 1
GAMG:  Solving for p, Initial residual = 0.610701, Final residual = 0.0113936, No Iterations 1
time step continuity errors : sum local = 2.60874e-17, global = -1.00211e-19, cumulative = -1.01215e-16
Pressure gradient source: uncorrected Ubar = 1, pressure gradient = 0.120069
GAMG:  Solving for p, Initial residual = 0.475698, Final residual = 0.010743, No Iterations 1
time step continuity errors : sum local = 2.60078e-17, global = 5.57684e-20, cumulative = -1.01159e-16
Pressure gradient source: uncorrected Ubar = 1, pressure gradient = 0.120069
GAMG:  Solving for p, Initial residual = 0.464751, Final residual = 7.61549e-07, No Iterations 12
time step continuity errors : sum local = 2.64771e-17, global = 8.97952e-20, cumulative = -1.01069e-16
Pressure gradient source: uncorrected Ubar = 1, pressure gradient = 0.120069
ExecutionTime = 126.31 s  ClockTime = 126 s

Courant Number mean: 0.4 max: 0.599518
Time = 9.985

PIMPLE: iteration 1
GAMG:  Solving for p, Initial residual = 0.604784, Final residual = 0.0132801, No Iterations 1
time step continuity errors : sum local = 2.63601e-17, global = 2.2912e-19, cumulative = -1.0084e-16
Pressure gradient source: uncorrected Ubar = 1, pressure gradient = 0.120069
GAMG:  Solving for p, Initial residual = 0.469145, Final residual = 0.00776663, No Iterations 1
time step continuity errors : sum local = 2.62061e-17, global = -1.42282e-19, cumulative = -1.00982e-16
Pressure gradient source: uncorrected Ubar = 1, pressure gradient = 0.120069
GAMG:  Solving for p, Initial residual = 0.467697, Final residual = 7.49259e-07, No Iterations 14
time step continuity errors : sum local = 2.64117e-17, global = -7.32123e-20, cumulative = -1.01056e-16
Pressure gradient source: uncorrected Ubar = 1, pressure gradient = 0.120069
ExecutionTime = 126.37 s  ClockTime = 126 s

Courant Number mean: 0.4 max: 0.599518
Time = 9.99

PIMPLE: iteration 1
GAMG:  Solving for p, Initial residual = 0.609052, Final residual = 0.0127283, No Iterations 1
time step continuity errors : sum local = 2.62307e-17, global = -1.81232e-19, cumulative = -1.01237e-16
Pressure gradient source: uncorrected Ubar = 1, pressure gradient = 0.120068
GAMG:  Solving for p, Initial residual = 0.471358, Final residual = 0.0115191, No Iterations 1
time step continuity errors : sum local = 2.6376e-17, global = 9.32209e-20, cumulative = -1.01144e-16
Pressure gradient source: uncorrected Ubar = 1, pressure gradient = 0.120068
GAMG:  Solving for p, Initial residual = 0.470448, Final residual = 8.73434e-07, No Iterations 13
time step continuity errors : sum local = 2.62965e-17, global = 2.37965e-19, cumulative = -1.00906e-16
Pressure gradient source: uncorrected Ubar = 1, pressure gradient = 0.120068
ExecutionTime = 126.43 s  ClockTime = 126 s

Courant Number mean: 0.4 max: 0.599519
Time = 9.995

PIMPLE: iteration 1
GAMG:  Solving for p, Initial residual = 0.604939, Final residual = 0.013457, No Iterations 1
time step continuity errors : sum local = 2.63052e-17, global = 1.05832e-19, cumulative = -1.008e-16
Pressure gradient source: uncorrected Ubar = 1, pressure gradient = 0.120068
GAMG:  Solving for p, Initial residual = 0.472521, Final residual = 0.01061, No Iterations 1
time step continuity errors : sum local = 2.67475e-17, global = 6.29921e-20, cumulative = -1.00737e-16
Pressure gradient source: uncorrected Ubar = 1, pressure gradient = 0.120068
GAMG:  Solving for p, Initial residual = 0.464083, Final residual = 8.19505e-07, No Iterations 12
time step continuity errors : sum local = 2.61627e-17, global = 4.95873e-20, cumulative = -1.00687e-16
Pressure gradient source: uncorrected Ubar = 1, pressure gradient = 0.120068
ExecutionTime = 126.49 s  ClockTime = 126 s

Courant Number mean: 0.4 max: 0.59952
Time = 10

PIMPLE: iteration 1
GAMG:  Solving for p, Initial residual = 0.601031, Final residual = 0.0133927, No Iterations 1
time step continuity errors : sum local = 2.62473e-17, global = -2.76188e-21, cumulative = -1.0069e-16
Pressure gradient source: uncorrected Ubar = 1, pressure gradient = 0.120068
GAMG:  Solving for p, Initial residual = 0.466366, Final residual = 0.0113152, No Iterations 1
time step continuity errors : sum local = 2.62343e-17, global = 2.76756e-20, cumulative = -1.00662e-16
Pressure gradient source: uncorrected Ubar = 1, pressure gradient = 0.120068
GAMG:  Solving for p, Initial residual = 0.465907, Final residual = 8.73643e-07, No Iterations 13
time step continuity errors : sum local = 2.62265e-17, global = -1.33536e-21, cumulative = -1.00664e-16
Pressure gradient source: uncorrected Ubar = 1, pressure gradient = 0.120068
ExecutionTime = 126.62 s  ClockTime = 127 s

End

