/*---------------------------------------------------------------------------*\
| =========                 |                                                 |
| \\      /  F ield         | OpenFOAM: The Open Source CFD Toolbox           |
|  \\    /   O peration     | Version:  2112                                  |
|   \\  /    A nd           | Website:  www.openfoam.com                      |
|    \\/     M anipulation  |                                                 |
\*---------------------------------------------------------------------------*/
Build  : _14aeaf8dab-20211220 OPENFOAM=2112 version=v2112
Arch   : "LSB;label=32;scalar=64"
Exec   : pimpleFoam
Date   : Jan 27 2022
Time   : 12:15:59
Host   : dia-Precision-7920-Tower
PID    : 22603
I/O    : uncollated
Case   : /home/corsi/OpenFOAM/corsi-v2112/run/MARTA/Poiseuille
nProcs : 1
trapFpe: Floating point exception trapping enabled (FOAM_SIGFPE).
fileModificationChecking : Monitoring run-time modified files using timeStampMaster (fileModificationSkew 5, maxFileModificationPolls 20)
allowSystemOperations : Allowing user-supplied system call operations

// * * * * * * * * * * * * * * * * * * * * * * * * * * * * * * * * * * * * * //
Create time

Create mesh for time = 0


PIMPLE: Operating solver in PISO mode

Reading field p

Reading field U

Reading/calculating face flux field phi

Selecting incompressible transport model Newtonian
Selecting turbulence model type laminar
Selecting laminar stress model Stokes
No MRF models present

Creating finite volume options from "constant/fvOptions"

Selecting finite volume options type meanVelocityForce
    Source: momentumSource
    - selecting all cells
    - selected 6400 cell(s) with volume 0.4
    Initial pressure gradient = 0

Courant Number mean: 0 max: 0
Courant Number mean: 0 max: 0

Starting time loop

--> FOAM Warning : 
    From void Foam::timeControl::read(const Foam::dictionary&)
    in file db/functionObjects/timeControl/timeControl.C at line 131
    Reading "system/controlDict.functions.probes_object" at line 51 to 64
    Found deprecated 'outputControl'
    Use 'writeControl' with 'writeInterval'
Courant Number mean: 0 max: 0
Time = 0.005

PIMPLE: iteration 1
GAMG:  Solving for p, Initial residual = 0, Final residual = 0, No Iterations 0
time step continuity errors : sum local = 0, global = 0, cumulative = 0
Pressure gradient source: uncorrected Ubar = 0, pressure gradient = 264.756
GAMG:  Solving for p, Initial residual = 0.999999, Final residual = 0.0063707, No Iterations 1
time step continuity errors : sum local = 3.57941e-18, global = 3.71322e-20, cumulative = 3.71322e-20
Pressure gradient source: uncorrected Ubar = 0.239058, pressure gradient = 201.464
GAMG:  Solving for p, Initial residual = 0.0591968, Final residual = 3.76492e-07, No Iterations 7
time step continuity errors : sum local = 3.69667e-18, global = -2.05692e-20, cumulative = 1.65631e-20
Pressure gradient source: uncorrected Ubar = 0.239263, pressure gradient = 201.41
ExecutionTime = 0.12 s  ClockTime = 0 s

Courant Number mean: 0.0478525 max: 0.0487875
Time = 0.01

PIMPLE: iteration 1
GAMG:  Solving for p, Initial residual = 0.986894, Final residual = 0.00789705, No Iterations 1
time step continuity errors : sum local = 3.14503e-17, global = -5.19214e-19, cumulative = -5.02651e-19
Pressure gradient source: uncorrected Ubar = 1.7557, pressure gradient = 1.33351
GAMG:  Solving for p, Initial residual = 0.0782284, Final residual = 0.00182671, No Iterations 1
time step continuity errors : sum local = 3.05402e-17, global = 1.33021e-19, cumulative = -3.69629e-19
Pressure gradient source: uncorrected Ubar = 1.756, pressure gradient = 1.2542
GAMG:  Solving for p, Initial residual = 0.0687835, Final residual = 6.76679e-07, No Iterations 9
time step continuity errors : sum local = 3.09466e-17, global = 1.09075e-19, cumulative = -2.60555e-19
Pressure gradient source: uncorrected Ubar = 1.75604, pressure gradient = 1.24454
ExecutionTime = 0.15 s  ClockTime = 0 s

Courant Number mean: 0.351207 max: 0.354244
Time = 0.015

PIMPLE: iteration 1
GAMG:  Solving for p, Initial residual = 0.667298, Final residual = 0.00997223, No Iterations 1
time step continuity errors : sum local = 1.68451e-17, global = -8.98656e-20, cumulative = -3.5042e-19
Pressure gradient source: uncorrected Ubar = 1.00022, pressure gradient = 1.18538
GAMG:  Solving for p, Initial residual = 0.147217, Final residual = 0.00546046, No Iterations 1
time step continuity errors : sum local = 1.60536e-17, global = -2.52124e-19, cumulative = -6.02544e-19
Pressure gradient source: uncorrected Ubar = 1.00047, pressure gradient = 1.12034
GAMG:  Solving for p, Initial residual = 0.120082, Final residual = 6.44264e-07, No Iterations 8
time step continuity errors : sum local = 1.59866e-17, global = 2.26972e-20, cumulative = -5.79847e-19
Pressure gradient source: uncorrected Ubar = 1.0005, pressure gradient = 1.11213
ExecutionTime = 0.17 s  ClockTime = 0 s

Courant Number mean: 0.265143 max: 0.269508
Time = 0.02

PIMPLE: iteration 1
GAMG:  Solving for p, Initial residual = 0.668524, Final residual = 0.0170443, No Iterations 1
time step continuity errors : sum local = 1.6452e-17, global = 1.02901e-19, cumulative = -4.76946e-19
Pressure gradient source: uncorrected Ubar = 1.00018, pressure gradient = 1.0635
GAMG:  Solving for p, Initial residual = 0.299432, Final residual = 0.00978284, No Iterations 1
time step continuity errors : sum local = 1.57671e-17, global = 6.95862e-20, cumulative = -4.0736e-19
Pressure gradient source: uncorrected Ubar = 1.00039, pressure gradient = 1.00987
GAMG:  Solving for p, Initial residual = 0.292055, Final residual = 7.43403e-07, No Iterations 9
time step continuity errors : sum local = 1.57792e-17, global = 2.11718e-19, cumulative = -1.95641e-19
Pressure gradient source: uncorrected Ubar = 1.00041, pressure gradient = 1.00285
ExecutionTime = 0.19 s  ClockTime = 0 s

Courant Number mean: 0.237217 max: 0.242459
Time = 0.025

PIMPLE: iteration 1
GAMG:  Solving for p, Initial residual = 0.478402, Final residual = 0.0094697, No Iterations 1
time step continuity errors : sum local = 1.55187e-17, global = 4.4829e-20, cumulative = -1.50812e-19
Pressure gradient source: uncorrected Ubar = 1.00015, pressure gradient = 0.962652
GAMG:  Solving for p, Initial residual = 0.333874, Final residual = 0.006092, No Iterations 1
time step continuity errors : sum local = 1.58109e-17, global = -1.71007e-20, cumulative = -1.67913e-19
Pressure gradient source: uncorrected Ubar = 1.00032, pressure gradient = 0.918182
GAMG:  Solving for p, Initial residual = 0.292654, Final residual = 4.34776e-07, No Iterations 7
time step continuity errors : sum local = 1.57652e-17, global = 7.96955e-20, cumulative = -8.82174e-20
Pressure gradient source: uncorrected Ubar = 1.00034, pressure gradient = 0.912139
ExecutionTime = 0.2 s  ClockTime = 1 s

Courant Number mean: 0.223787 max: 0.22982
Time = 0.03

PIMPLE: iteration 1
GAMG:  Solving for p, Initial residual = 0.503106, Final residual = 0.00901738, No Iterations 1
time step continuity errors : sum local = 1.58447e-17, global = -7.72299e-20, cumulative = -1.65447e-19
Pressure gradient source: uncorrected Ubar = 1.00013, pressure gradient = 0.878718
GAMG:  Solving for p, Initial residual = 0.341202, Final residual = 0.00541239, No Iterations 1
time step continuity errors : sum local = 1.57804e-17, global = 4.93747e-20, cumulative = -1.16073e-19
Pressure gradient source: uncorrected Ubar = 1.00027, pressure gradient = 0.841624
GAMG:  Solving for p, Initial residual = 0.335651, Final residual = 9.75058e-07, No Iterations 9
time step continuity errors : sum local = 1.56892e-17, global = 1.10083e-19, cumulative = -5.99002e-21
Pressure gradient source: uncorrected Ubar = 1.00029, pressure gradient = 0.836392
ExecutionTime = 0.22 s  ClockTime = 1 s

Courant Number mean: 0.21613 max: 0.2229
Time = 0.035

PIMPLE: iteration 1
GAMG:  Solving for p, Initial residual = 0.537692, Final residual = 0.00888005, No Iterations 1
time step continuity errors : sum local = 1.57913e-17, global = -8.23274e-20, cumulative = -8.83174e-20
Pressure gradient source: uncorrected Ubar = 1.00011, pressure gradient = 0.808436
GAMG:  Solving for p, Initial residual = 0.391146, Final residual = 0.0061863, No Iterations 1
time step continuity errors : sum local = 1.56998e-17, global = -1.24251e-19, cumulative = -2.12569e-19
Pressure gradient source: uncorrected Ubar = 1.00022, pressure gradient = 0.777304
GAMG:  Solving for p, Initial residual = 0.386731, Final residual = 7.33561e-07, No Iterations 9
time step continuity errors : sum local = 1.58353e-17, global = 1.67415e-20, cumulative = -1.95827e-19
Pressure gradient source: uncorrected Ubar = 1.00024, pressure gradient = 0.772747
ExecutionTime = 0.23 s  ClockTime = 1 s

Courant Number mean: 0.211334 max: 0.218796
Time = 0.04

PIMPLE: iteration 1
GAMG:  Solving for p, Initial residual = 0.592621, Final residual = 0.0107408, No Iterations 1
time step continuity errors : sum local = 1.59012e-17, global = -2.6648e-19, cumulative = -4.62307e-19
Pressure gradient source: uncorrected Ubar = 1.00009, pressure gradient = 0.749214
GAMG:  Solving for p, Initial residual = 0.385895, Final residual = 0.00640026, No Iterations 1
time step continuity errors : sum local = 1.59875e-17, global = -9.24335e-20, cumulative = -5.5474e-19
Pressure gradient source: uncorrected Ubar = 1.00019, pressure gradient = 0.722918
GAMG:  Solving for p, Initial residual = 0.387404, Final residual = 6.90651e-07, No Iterations 9
time step continuity errors : sum local = 1.55891e-17, global = -3.55604e-20, cumulative = -5.90301e-19
Pressure gradient source: uncorrected Ubar = 1.0002, pressure gradient = 0.718926
ExecutionTime = 0.25 s  ClockTime = 1 s

Courant Number mean: 0.208153 max: 0.216268
Time = 0.045

PIMPLE: iteration 1
GAMG:  Solving for p, Initial residual = 0.582778, Final residual = 0.013927, No Iterations 1
time step continuity errors : sum local = 1.59949e-17, global = -9.60153e-20, cumulative = -6.86316e-19
Pressure gradient source: uncorrected Ubar = 1.00008, pressure gradient = 0.698988
GAMG:  Solving for p, Initial residual = 0.3739, Final residual = 0.00655057, No Iterations 1
time step continuity errors : sum local = 1.58097e-17, global = 1.90269e-19, cumulative = -4.96047e-19
Pressure gradient source: uncorrected Ubar = 1.00016, pressure gradient = 0.676632
GAMG:  Solving for p, Initial residual = 0.377368, Final residual = 4.62324e-07, No Iterations 10
time step continuity errors : sum local = 1.56669e-17, global = 1.63505e-19, cumulative = -3.32542e-19
Pressure gradient source: uncorrected Ubar = 1.00017, pressure gradient = 0.673113
ExecutionTime = 0.27 s  ClockTime = 1 s

Courant Number mean: 0.205959 max: 0.214695
Time = 0.05

PIMPLE: iteration 1
GAMG:  Solving for p, Initial residual = 0.604132, Final residual = 0.0116938, No Iterations 1
time step continuity errors : sum local = 1.57421e-17, global = -1.07181e-19, cumulative = -4.39723e-19
Pressure gradient source: uncorrected Ubar = 1.00006, pressure gradient = 0.656109
GAMG:  Solving for p, Initial residual = 0.386176, Final residual = 0.00698968, No Iterations 1
time step continuity errors : sum local = 1.58428e-17, global = -1.28202e-19, cumulative = -5.67925e-19
Pressure gradient source: uncorrected Ubar = 1.00014, pressure gradient = 0.636976
GAMG:  Solving for p, Initial residual = 0.38787, Final residual = 7.7563e-07, No Iterations 9
time step continuity errors : sum local = 1.58615e-17, global = -1.25759e-19, cumulative = -6.93685e-19
Pressure gradient source: uncorrected Ubar = 1.00015, pressure gradient = 0.633857
ExecutionTime = 0.29 s  ClockTime = 1 s

Courant Number mean: 0.204407 max: 0.213733
Time = 0.055

PIMPLE: iteration 1
GAMG:  Solving for p, Initial residual = 0.624369, Final residual = 0.0118191, No Iterations 1
time step continuity errors : sum local = 1.55834e-17, global = -2.11153e-19, cumulative = -9.04837e-19
Pressure gradient source: uncorrected Ubar = 1.00006, pressure gradient = 0.619258
GAMG:  Solving for p, Initial residual = 0.384009, Final residual = 0.00681797, No Iterations 1
time step continuity errors : sum local = 1.56037e-17, global = -2.41795e-19, cumulative = -1.14663e-18
Pressure gradient source: uncorrected Ubar = 1.00012, pressure gradient = 0.602774
GAMG:  Solving for p, Initial residual = 0.394252, Final residual = 3.99399e-07, No Iterations 10
time step continuity errors : sum local = 1.56276e-17, global = 2.05164e-20, cumulative = -1.12612e-18
Pressure gradient source: uncorrected Ubar = 1.00013, pressure gradient = 0.599994
ExecutionTime = 0.31 s  ClockTime = 1 s

Courant Number mean: 0.203287 max: 0.213178
Time = 0.06

PIMPLE: iteration 1
GAMG:  Solving for p, Initial residual = 0.636535, Final residual = 0.0121999, No Iterations 1
time step continuity errors : sum local = 1.55365e-17, global = -2.84402e-20, cumulative = -1.15456e-18
Pressure gradient source: uncorrected Ubar = 1.00005, pressure gradient = 0.587375
GAMG:  Solving for p, Initial residual = 0.41513, Final residual = 0.00697755, No Iterations 1
time step continuity errors : sum local = 1.543e-17, global = 7.53576e-20, cumulative = -1.0792e-18
Pressure gradient source: uncorrected Ubar = 1.0001, pressure gradient = 0.573078
GAMG:  Solving for p, Initial residual = 0.414154, Final residual = 8.29033e-07, No Iterations 9
time step continuity errors : sum local = 1.55245e-17, global = -1.16796e-19, cumulative = -1.196e-18
Pressure gradient source: uncorrected Ubar = 1.00011, pressure gradient = 0.570588
ExecutionTime = 0.32 s  ClockTime = 1 s

Courant Number mean: 0.202469 max: 0.212901
Time = 0.065

PIMPLE: iteration 1
GAMG:  Solving for p, Initial residual = 0.618285, Final residual = 0.0135064, No Iterations 1
time step continuity errors : sum local = 1.53436e-17, global = -2.49541e-19, cumulative = -1.44554e-18
Pressure gradient source: uncorrected Ubar = 1.00004, pressure gradient = 0.559607
GAMG:  Solving for p, Initial residual = 0.393039, Final residual = 0.00637693, No Iterations 1
time step continuity errors : sum local = 1.54054e-17, global = -3.35245e-19, cumulative = -1.78078e-18
Pressure gradient source: uncorrected Ubar = 1.00009, pressure gradient = 0.547125
GAMG:  Solving for p, Initial residual = 0.377007, Final residual = 4.04072e-07, No Iterations 10
time step continuity errors : sum local = 1.57697e-17, global = 1.09147e-19, cumulative = -1.67163e-18
Pressure gradient source: uncorrected Ubar = 1.0001, pressure gradient = 0.544882
ExecutionTime = 0.34 s  ClockTime = 1 s

Courant Number mean: 0.201865 max: 0.212817
Time = 0.07

PIMPLE: iteration 1
GAMG:  Solving for p, Initial residual = 0.647248, Final residual = 0.0122957, No Iterations 1
time step continuity errors : sum local = 1.53939e-17, global = 2.56072e-19, cumulative = -1.41556e-18
Pressure gradient source: uncorrected Ubar = 1.00004, pressure gradient = 0.535264
GAMG:  Solving for p, Initial residual = 0.418664, Final residual = 0.00678921, No Iterations 1
time step continuity errors : sum local = 1.5077e-17, global = 3.33475e-20, cumulative = -1.38222e-18
Pressure gradient source: uncorrected Ubar = 1.00008, pressure gradient = 0.524295
GAMG:  Solving for p, Initial residual = 0.411007, Final residual = 2.7384e-07, No Iterations 10
time step continuity errors : sum local = 1.50494e-17, global = -9.12403e-20, cumulative = -1.47346e-18
Pressure gradient source: uncorrected Ubar = 1.00009, pressure gradient = 0.522266
ExecutionTime = 0.36 s  ClockTime = 1 s

Courant Number mean: 0.201415 max: 0.212869
Time = 0.075

PIMPLE: iteration 1
GAMG:  Solving for p, Initial residual = 0.662383, Final residual = 0.0111981, No Iterations 1
time step continuity errors : sum local = 1.49926e-17, global = -9.33224e-20, cumulative = -1.56678e-18
Pressure gradient source: uncorrected Ubar = 1.00003, pressure gradient = 0.513786
GAMG:  Solving for p, Initial residual = 0.403631, Final residual = 0.00732013, No Iterations 1
time step continuity errors : sum local = 1.51097e-17, global = 2.05293e-20, cumulative = -1.54625e-18
Pressure gradient source: uncorrected Ubar = 1.00007, pressure gradient = 0.504087
GAMG:  Solving for p, Initial residual = 0.407699, Final residual = 5.83546e-07, No Iterations 8
time step continuity errors : sum local = 1.52737e-17, global = -4.12372e-20, cumulative = -1.58749e-18
Pressure gradient source: uncorrected Ubar = 1.00008, pressure gradient = 0.502241
ExecutionTime = 0.37 s  ClockTime = 1 s

Courant Number mean: 0.201078 max: 0.213017
Time = 0.08

PIMPLE: iteration 1
GAMG:  Solving for p, Initial residual = 0.642799, Final residual = 0.0128314, No Iterations 1
time step continuity errors : sum local = 1.51234e-17, global = -1.38785e-19, cumulative = -1.72627e-18
Pressure gradient source: uncorrected Ubar = 1.00003, pressure gradient = 0.494719
GAMG:  Solving for p, Initial residual = 0.406759, Final residual = 0.00678084, No Iterations 1
time step continuity errors : sum local = 1.52931e-17, global = 8.37844e-20, cumulative = -1.64249e-18
Pressure gradient source: uncorrected Ubar = 1.00006, pressure gradient = 0.486088
GAMG:  Solving for p, Initial residual = 0.418813, Final residual = 4.82964e-07, No Iterations 10
time step continuity errors : sum local = 1.52199e-17, global = 1.31172e-20, cumulative = -1.62937e-18
Pressure gradient source: uncorrected Ubar = 1.00007, pressure gradient = 0.484403
ExecutionTime = 0.39 s  ClockTime = 1 s

Courant Number mean: 0.200825 max: 0.213234
Time = 0.085

PIMPLE: iteration 1
GAMG:  Solving for p, Initial residual = 0.651596, Final residual = 0.0130827, No Iterations 1
time step continuity errors : sum local = 1.50552e-17, global = -1.40044e-19, cumulative = -1.76941e-18
Pressure gradient source: uncorrected Ubar = 1.00003, pressure gradient = 0.47769
GAMG:  Solving for p, Initial residual = 0.413309, Final residual = 0.00704199, No Iterations 1
time step continuity errors : sum local = 1.51357e-17, global = -2.08339e-20, cumulative = -1.79025e-18
Pressure gradient source: uncorrected Ubar = 1.00005, pressure gradient = 0.469965
GAMG:  Solving for p, Initial residual = 0.407738, Final residual = 4.1647e-07, No Iterations 9
time step continuity errors : sum local = 1.53861e-17, global = 1.48452e-21, cumulative = -1.78876e-18
Pressure gradient source: uncorrected Ubar = 1.00006, pressure gradient = 0.46842
ExecutionTime = 0.42 s  ClockTime = 1 s

Courant Number mean: 0.200634 max: 0.213498
Time = 0.09

PIMPLE: iteration 1
GAMG:  Solving for p, Initial residual = 0.64629, Final residual = 0.011711, No Iterations 1
time step continuity errors : sum local = 1.49794e-17, global = -1.08556e-19, cumulative = -1.89732e-18
Pressure gradient source: uncorrected Ubar = 1.00002, pressure gradient = 0.462393
GAMG:  Solving for p, Initial residual = 0.420095, Final residual = 0.00718065, No Iterations 1
time step continuity errors : sum local = 1.54397e-17, global = -1.23595e-19, cumulative = -2.02091e-18
Pressure gradient source: uncorrected Ubar = 1.00005, pressure gradient = 0.45544
GAMG:  Solving for p, Initial residual = 0.41793, Final residual = 5.42596e-07, No Iterations 9
time step continuity errors : sum local = 1.52486e-17, global = -1.89307e-19, cumulative = -2.21022e-18
Pressure gradient source: uncorrected Ubar = 1.00005, pressure gradient = 0.454018
ExecutionTime = 0.43 s  ClockTime = 1 s

Courant Number mean: 0.200489 max: 0.213796
Time = 0.095

PIMPLE: iteration 1
GAMG:  Solving for p, Initial residual = 0.629776, Final residual = 0.0109249, No Iterations 1
time step continuity errors : sum local = 1.52616e-17, global = -1.38183e-19, cumulative = -2.3484e-18
Pressure gradient source: uncorrected Ubar = 1.00002, pressure gradient = 0.448578
GAMG:  Solving for p, Initial residual = 0.426637, Final residual = 0.0070581, No Iterations 1
time step continuity errors : sum local = 1.51713e-17, global = 7.22558e-20, cumulative = -2.27615e-18
Pressure gradient source: uncorrected Ubar = 1.00004, pressure gradient = 0.442286
GAMG:  Solving for p, Initial residual = 0.431757, Final residual = 4.60753e-07, No Iterations 10
time step continuity errors : sum local = 1.53217e-17, global = -1.78388e-19, cumulative = -2.45454e-18
Pressure gradient source: uncorrected Ubar = 1.00005, pressure gradient = 0.440972
ExecutionTime = 0.45 s  ClockTime = 1 s

Courant Number mean: 0.200379 max: 0.214118
Time = 0.1

PIMPLE: iteration 1
GAMG:  Solving for p, Initial residual = 0.660466, Final residual = 0.0131088, No Iterations 1
time step continuity errors : sum local = 1.52085e-17, global = 1.99882e-20, cumulative = -2.43455e-18
Pressure gradient source: uncorrected Ubar = 1.00002, pressure gradient = 0.436036
GAMG:  Solving for p, Initial residual = 0.427409, Final residual = 0.00728381, No Iterations 1
time step continuity errors : sum local = 1.4889e-17, global = -7.39641e-20, cumulative = -2.50851e-18
Pressure gradient source: uncorrected Ubar = 1.00004, pressure gradient = 0.430314
GAMG:  Solving for p, Initial residual = 0.429379, Final residual = 8.44391e-07, No Iterations 10
time step continuity errors : sum local = 1.50817e-17, global = 6.7598e-21, cumulative = -2.50175e-18
Pressure gradient source: uncorrected Ubar = 1.00004, pressure gradient = 0.429096
ExecutionTime = 0.47 s  ClockTime = 1 s

Courant Number mean: 0.200295 max: 0.214454
Time = 0.105

PIMPLE: iteration 1
GAMG:  Solving for p, Initial residual = 0.638107, Final residual = 0.0114387, No Iterations 1
time step continuity errors : sum local = 1.50688e-17, global = -1.24374e-19, cumulative = -2.62613e-18
Pressure gradient source: uncorrected Ubar = 1.00002, pressure gradient = 0.424595
GAMG:  Solving for p, Initial residual = 0.428273, Final residual = 0.00742723, No Iterations 1
time step continuity errors : sum local = 1.51178e-17, global = -1.46632e-19, cumulative = -2.77276e-18
Pressure gradient source: uncorrected Ubar = 1.00004, pressure gradient = 0.419366
GAMG:  Solving for p, Initial residual = 0.411544, Final residual = 8.34816e-07, No Iterations 10
time step continuity errors : sum local = 1.52099e-17, global = -4.27445e-20, cumulative = -2.8155e-18
Pressure gradient source: uncorrected Ubar = 1.00004, pressure gradient = 0.418233
ExecutionTime = 0.49 s  ClockTime = 1 s

Courant Number mean: 0.200231 max: 0.2148
Time = 0.11

PIMPLE: iteration 1
GAMG:  Solving for p, Initial residual = 0.67696, Final residual = 0.013286, No Iterations 1
time step continuity errors : sum local = 1.50295e-17, global = -4.06772e-20, cumulative = -2.85618e-18
Pressure gradient source: uncorrected Ubar = 1.00002, pressure gradient = 0.41411
GAMG:  Solving for p, Initial residual = 0.397818, Final residual = 0.00717404, No Iterations 1
time step continuity errors : sum local = 1.51192e-17, global = -3.15341e-19, cumulative = -3.17152e-18
Pressure gradient source: uncorrected Ubar = 1.00003, pressure gradient = 0.40931
GAMG:  Solving for p, Initial residual = 0.414359, Final residual = 5.12606e-07, No Iterations 10
time step continuity errors : sum local = 1.52507e-17, global = -1.61732e-20, cumulative = -3.18769e-18
Pressure gradient source: uncorrected Ubar = 1.00004, pressure gradient = 0.408254
ExecutionTime = 0.51 s  ClockTime = 1 s

Courant Number mean: 0.200182 max: 0.215153
Time = 0.115

PIMPLE: iteration 1
GAMG:  Solving for p, Initial residual = 0.64777, Final residual = 0.0122845, No Iterations 1
time step continuity errors : sum local = 1.50591e-17, global = -2.71229e-19, cumulative = -3.45892e-18
Pressure gradient source: uncorrected Ubar = 1.00001, pressure gradient = 0.40446
GAMG:  Solving for p, Initial residual = 0.4172, Final residual = 0.00702862, No Iterations 1
time step continuity errors : sum local = 1.51294e-17, global = -7.98027e-20, cumulative = -3.53873e-18
Pressure gradient source: uncorrected Ubar = 1.00003, pressure gradient = 0.400036
GAMG:  Solving for p, Initial residual = 0.402263, Final residual = 2.89661e-07, No Iterations 10
time step continuity errors : sum local = 1.53055e-17, global = -8.49359e-20, cumulative = -3.62366e-18
Pressure gradient source: uncorrected Ubar = 1.00003, pressure gradient = 0.399048
ExecutionTime = 0.53 s  ClockTime = 1 s

Courant Number mean: 0.200145 max: 0.215507
Time = 0.12

PIMPLE: iteration 1
GAMG:  Solving for p, Initial residual = 0.651129, Final residual = 0.0106087, No Iterations 1
time step continuity errors : sum local = 1.52383e-17, global = 1.11531e-19, cumulative = -3.51213e-18
Pressure gradient source: uncorrected Ubar = 1.00001, pressure gradient = 0.395544
GAMG:  Solving for p, Initial residual = 0.417902, Final residual = 0.00662688, No Iterations 1
time step continuity errors : sum local = 1.50238e-17, global = 6.8026e-20, cumulative = -3.4441e-18
Pressure gradient source: uncorrected Ubar = 1.00003, pressure gradient = 0.391451
GAMG:  Solving for p, Initial residual = 0.412558, Final residual = 6.53955e-07, No Iterations 9
time step continuity errors : sum local = 1.50696e-17, global = -1.76892e-19, cumulative = -3.621e-18
Pressure gradient source: uncorrected Ubar = 1.00003, pressure gradient = 0.390524
ExecutionTime = 0.55 s  ClockTime = 1 s

Courant Number mean: 0.200116 max: 0.215863
Time = 0.125

PIMPLE: iteration 1
GAMG:  Solving for p, Initial residual = 0.68186, Final residual = 0.012445, No Iterations 1
time step continuity errors : sum local = 1.52348e-17, global = 8.24562e-20, cumulative = -3.53854e-18
Pressure gradient source: uncorrected Ubar = 1.00001, pressure gradient = 0.387275
GAMG:  Solving for p, Initial residual = 0.413083, Final residual = 0.00742572, No Iterations 1
time step continuity errors : sum local = 1.51662e-17, global = -3.6305e-20, cumulative = -3.57485e-18
Pressure gradient source: uncorrected Ubar = 1.00003, pressure gradient = 0.383474
GAMG:  Solving for p, Initial residual = 0.39329, Final residual = 8.43698e-07, No Iterations 9
time step continuity errors : sum local = 1.54133e-17, global = -9.88734e-20, cumulative = -3.67372e-18
Pressure gradient source: uncorrected Ubar = 1.00003, pressure gradient = 0.382602
ExecutionTime = 0.56 s  ClockTime = 1 s

Courant Number mean: 0.200094 max: 0.216217
Time = 0.13

PIMPLE: iteration 1
GAMG:  Solving for p, Initial residual = 0.658487, Final residual = 0.0121054, No Iterations 1
time step continuity errors : sum local = 1.55351e-17, global = -5.46004e-21, cumulative = -3.67918e-18
Pressure gradient source: uncorrected Ubar = 1.00001, pressure gradient = 0.37958
GAMG:  Solving for p, Initial residual = 0.4161, Final residual = 0.00771838, No Iterations 1
time step continuity errors : sum local = 1.51896e-17, global = -1.92889e-19, cumulative = -3.87207e-18
Pressure gradient source: uncorrected Ubar = 1.00002, pressure gradient = 0.376038
GAMG:  Solving for p, Initial residual = 0.40193, Final residual = 6.01997e-07, No Iterations 10
time step continuity errors : sum local = 1.5341e-17, global = 7.24987e-20, cumulative = -3.79957e-18
Pressure gradient source: uncorrected Ubar = 1.00003, pressure gradient = 0.375217
ExecutionTime = 0.58 s  ClockTime = 1 s

Courant Number mean: 0.200076 max: 0.216569
Time = 0.135

PIMPLE: iteration 1
GAMG:  Solving for p, Initial residual = 0.650294, Final residual = 0.0115671, No Iterations 1
time step continuity errors : sum local = 1.51984e-17, global = -1.39441e-19, cumulative = -3.93901e-18
Pressure gradient source: uncorrected Ubar = 1.00001, pressure gradient = 0.372396
GAMG:  Solving for p, Initial residual = 0.416751, Final residual = 0.00720263, No Iterations 1
time step continuity errors : sum local = 1.53137e-17, global = 6.88482e-20, cumulative = -3.87016e-18
Pressure gradient source: uncorrected Ubar = 1.00002, pressure gradient = 0.369086
GAMG:  Solving for p, Initial residual = 0.415124, Final residual = 5.95117e-07, No Iterations 10
time step continuity errors : sum local = 1.50785e-17, global = -5.97827e-20, cumulative = -3.92994e-18
Pressure gradient source: uncorrected Ubar = 1.00003, pressure gradient = 0.36831
ExecutionTime = 0.6 s  ClockTime = 1 s

Courant Number mean: 0.200063 max: 0.216919
Time = 0.14

PIMPLE: iteration 1
GAMG:  Solving for p, Initial residual = 0.667374, Final residual = 0.0130806, No Iterations 1
time step continuity errors : sum local = 1.50923e-17, global = -8.02719e-20, cumulative = -4.01022e-18
Pressure gradient source: uncorrected Ubar = 1.00001, pressure gradient = 0.365669
GAMG:  Solving for p, Initial residual = 0.426314, Final residual = 0.00764009, No Iterations 1
time step continuity errors : sum local = 1.54233e-17, global = -2.20141e-19, cumulative = -4.23036e-18
Pressure gradient source: uncorrected Ubar = 1.00002, pressure gradient = 0.362567
GAMG:  Solving for p, Initial residual = 0.413861, Final residual = 4.23426e-07, No Iterations 8
time step continuity errors : sum local = 1.54817e-17, global = -1.46954e-19, cumulative = -4.37731e-18
Pressure gradient source: uncorrected Ubar = 1.00002, pressure gradient = 0.361833
ExecutionTime = 0.62 s  ClockTime = 1 s

Courant Number mean: 0.200053 max: 0.217265
Time = 0.145

PIMPLE: iteration 1
GAMG:  Solving for p, Initial residual = 0.645147, Final residual = 0.0121703, No Iterations 1
time step continuity errors : sum local = 1.54073e-17, global = -8.34886e-21, cumulative = -4.38566e-18
Pressure gradient source: uncorrected Ubar = 1.00001, pressure gradient = 0.359353
GAMG:  Solving for p, Initial residual = 0.409039, Final residual = 0.00796595, No Iterations 1
time step continuity errors : sum local = 1.49872e-17, global = -7.72701e-20, cumulative = -4.46293e-18
Pressure gradient source: uncorrected Ubar = 1.00002, pressure gradient = 0.356437
GAMG:  Solving for p, Initial residual = 0.395082, Final residual = 5.87561e-07, No Iterations 10
time step continuity errors : sum local = 1.55914e-17, global = 1.37985e-19, cumulative = -4.32495e-18
Pressure gradient source: uncorrected Ubar = 1.00002, pressure gradient = 0.355742
ExecutionTime = 0.64 s  ClockTime = 1 s

Courant Number mean: 0.200044 max: 0.217607
Time = 0.15

PIMPLE: iteration 1
GAMG:  Solving for p, Initial residual = 0.642818, Final residual = 0.0118544, No Iterations 1
time step continuity errors : sum local = 1.56163e-17, global = -3.41411e-20, cumulative = -4.35909e-18
Pressure gradient source: uncorrected Ubar = 1.00001, pressure gradient = 0.353408
GAMG:  Solving for p, Initial residual = 0.429723, Final residual = 0.00838799, No Iterations 1
time step continuity errors : sum local = 1.53026e-17, global = 4.78816e-21, cumulative = -4.3543e-18
Pressure gradient source: uncorrected Ubar = 1.00002, pressure gradient = 0.350661
GAMG:  Solving for p, Initial residual = 0.414157, Final residual = 4.4514e-07, No Iterations 8
time step continuity errors : sum local = 1.53777e-17, global = -1.68953e-19, cumulative = -4.52325e-18
Pressure gradient source: uncorrected Ubar = 1.00002, pressure gradient = 0.35
ExecutionTime = 0.65 s  ClockTime = 1 s

Courant Number mean: 0.200038 max: 0.217946
Time = 0.155

PIMPLE: iteration 1
GAMG:  Solving for p, Initial residual = 0.681285, Final residual = 0.0140844, No Iterations 1
time step continuity errors : sum local = 1.5297e-17, global = -9.88353e-20, cumulative = -4.62209e-18
Pressure gradient source: uncorrected Ubar = 1.00001, pressure gradient = 0.347799
GAMG:  Solving for p, Initial residual = 0.40834, Final residual = 0.00717406, No Iterations 1
time step continuity errors : sum local = 1.51898e-17, global = -4.88163e-20, cumulative = -4.6709e-18
Pressure gradient source: uncorrected Ubar = 1.00002, pressure gradient = 0.345205
GAMG:  Solving for p, Initial residual = 0.402351, Final residual = 7.72738e-07, No Iterations 8
time step continuity errors : sum local = 1.5186e-17, global = 1.64069e-19, cumulative = -4.50683e-18
Pressure gradient source: uncorrected Ubar = 1.00002, pressure gradient = 0.344576
ExecutionTime = 0.67 s  ClockTime = 1 s

Courant Number mean: 0.200033 max: 0.21828
Time = 0.16

PIMPLE: iteration 1
GAMG:  Solving for p, Initial residual = 0.660026, Final residual = 0.0137605, No Iterations 1
time step continuity errors : sum local = 1.51193e-17, global = 7.25496e-20, cumulative = -4.43428e-18
Pressure gradient source: uncorrected Ubar = 1.00001, pressure gradient = 0.342495
GAMG:  Solving for p, Initial residual = 0.42895, Final residual = 0.00785692, No Iterations 1
time step continuity errors : sum local = 1.51709e-17, global = -2.75037e-20, cumulative = -4.46179e-18
Pressure gradient source: uncorrected Ubar = 1.00002, pressure gradient = 0.34004
GAMG:  Solving for p, Initial residual = 0.411977, Final residual = 8.04757e-07, No Iterations 9
time step continuity errors : sum local = 1.49344e-17, global = -6.97805e-20, cumulative = -4.53157e-18
Pressure gradient source: uncorrected Ubar = 1.00002, pressure gradient = 0.339441
ExecutionTime = 0.69 s  ClockTime = 1 s

Courant Number mean: 0.200029 max: 0.218611
Time = 0.165

PIMPLE: iteration 1
GAMG:  Solving for p, Initial residual = 0.647959, Final residual = 0.0131172, No Iterations 1
time step continuity errors : sum local = 1.50147e-17, global = 5.83165e-20, cumulative = -4.47325e-18
Pressure gradient source: uncorrected Ubar = 1.00001, pressure gradient = 0.337469
GAMG:  Solving for p, Initial residual = 0.407068, Final residual = 0.00687503, No Iterations 1
time step continuity errors : sum local = 1.5469e-17, global = -2.53155e-20, cumulative = -4.49857e-18
Pressure gradient source: uncorrected Ubar = 1.00002, pressure gradient = 0.335142
GAMG:  Solving for p, Initial residual = 0.424637, Final residual = 5.69762e-07, No Iterations 10
time step continuity errors : sum local = 1.51436e-17, global = -5.77301e-20, cumulative = -4.5563e-18
Pressure gradient source: uncorrected Ubar = 1.00002, pressure gradient = 0.33457
ExecutionTime = 0.71 s  ClockTime = 1 s

Courant Number mean: 0.200025 max: 0.218937
Time = 0.17

PIMPLE: iteration 1
GAMG:  Solving for p, Initial residual = 0.638471, Final residual = 0.0108152, No Iterations 1
time step continuity errors : sum local = 1.52728e-17, global = 1.99859e-20, cumulative = -4.53631e-18
Pressure gradient source: uncorrected Ubar = 1.00001, pressure gradient = 0.332698
GAMG:  Solving for p, Initial residual = 0.408535, Final residual = 0.00693769, No Iterations 1
time step continuity errors : sum local = 1.55387e-17, global = -1.61812e-19, cumulative = -4.69812e-18
Pressure gradient source: uncorrected Ubar = 1.00002, pressure gradient = 0.330487
GAMG:  Solving for p, Initial residual = 0.405659, Final residual = 3.56849e-07, No Iterations 10
time step continuity errors : sum local = 1.52618e-17, global = -2.04191e-19, cumulative = -4.90231e-18
Pressure gradient source: uncorrected Ubar = 1.00002, pressure gradient = 0.329941
ExecutionTime = 0.73 s  ClockTime = 1 s

Courant Number mean: 0.200023 max: 0.21926
Time = 0.175

PIMPLE: iteration 1
GAMG:  Solving for p, Initial residual = 0.667318, Final residual = 0.0120425, No Iterations 1
time step continuity errors : sum local = 1.52709e-17, global = 2.18364e-19, cumulative = -4.68395e-18
Pressure gradient source: uncorrected Ubar = 1.00001, pressure gradient = 0.328161
GAMG:  Solving for p, Initial residual = 0.408251, Final residual = 0.00675611, No Iterations 1
time step continuity errors : sum local = 1.51946e-17, global = 2.03286e-19, cumulative = -4.48067e-18
Pressure gradient source: uncorrected Ubar = 1.00001, pressure gradient = 0.326057
GAMG:  Solving for p, Initial residual = 0.419056, Final residual = 7.04284e-07, No Iterations 9
time step continuity errors : sum local = 1.53706e-17, global = -1.60342e-20, cumulative = -4.4967e-18
Pressure gradient source: uncorrected Ubar = 1.00002, pressure gradient = 0.325535
ExecutionTime = 0.74 s  ClockTime = 1 s

Courant Number mean: 0.20002 max: 0.219579
Time = 0.18

PIMPLE: iteration 1
GAMG:  Solving for p, Initial residual = 0.636956, Final residual = 0.0118652, No Iterations 1
time step continuity errors : sum local = 1.51336e-17, global = -1.34442e-19, cumulative = -4.63114e-18
Pressure gradient source: uncorrected Ubar = 1.00001, pressure gradient = 0.323839
GAMG:  Solving for p, Initial residual = 0.427086, Final residual = 0.00726091, No Iterations 1
time step continuity errors : sum local = 1.52036e-17, global = 2.3415e-20, cumulative = -4.60773e-18
Pressure gradient source: uncorrected Ubar = 1.00001, pressure gradient = 0.321833
GAMG:  Solving for p, Initial residual = 0.411537, Final residual = 2.46625e-07, No Iterations 8
time step continuity errors : sum local = 1.55674e-17, global = 5.60088e-20, cumulative = -4.55172e-18
Pressure gradient source: uncorrected Ubar = 1.00002, pressure gradient = 0.321333
ExecutionTime = 0.76 s  ClockTime = 1 s

Courant Number mean: 0.200019 max: 0.219894
Time = 0.185

PIMPLE: iteration 1
GAMG:  Solving for p, Initial residual = 0.655065, Final residual = 0.0158661, No Iterations 1
time step continuity errors : sum local = 1.51591e-17, global = -5.51186e-20, cumulative = -4.60684e-18
Pressure gradient source: uncorrected Ubar = 1.00001, pressure gradient = 0.319715
GAMG:  Solving for p, Initial residual = 0.424535, Final residual = 0.00738519, No Iterations 1
time step continuity errors : sum local = 1.49253e-17, global = -3.21578e-20, cumulative = -4.63899e-18
Pressure gradient source: uncorrected Ubar = 1.00001, pressure gradient = 0.317801
GAMG:  Solving for p, Initial residual = 0.417376, Final residual = 4.31295e-07, No Iterations 10
time step continuity errors : sum local = 1.51479e-17, global = -1.407e-19, cumulative = -4.77969e-18
Pressure gradient source: uncorrected Ubar = 1.00002, pressure gradient = 0.317321
ExecutionTime = 0.78 s  ClockTime = 1 s

Courant Number mean: 0.200017 max: 0.220205
Time = 0.19

PIMPLE: iteration 1
GAMG:  Solving for p, Initial residual = 0.645993, Final residual = 0.01153, No Iterations 1
time step continuity errors : sum local = 1.51838e-17, global = 5.50614e-20, cumulative = -4.72463e-18
Pressure gradient source: uncorrected Ubar = 1.00001, pressure gradient = 0.315776
GAMG:  Solving for p, Initial residual = 0.414344, Final residual = 0.00660963, No Iterations 1
time step continuity errors : sum local = 1.53663e-17, global = -1.55434e-19, cumulative = -4.88007e-18
Pressure gradient source: uncorrected Ubar = 1.00001, pressure gradient = 0.313946
GAMG:  Solving for p, Initial residual = 0.387156, Final residual = 9.17855e-07, No Iterations 9
time step continuity errors : sum local = 1.53646e-17, global = -9.9659e-20, cumulative = -4.97973e-18
Pressure gradient source: uncorrected Ubar = 1.00001, pressure gradient = 0.313485
ExecutionTime = 0.8 s  ClockTime = 1 s

Courant Number mean: 0.200016 max: 0.220513
Time = 0.195

PIMPLE: iteration 1
GAMG:  Solving for p, Initial residual = 0.680981, Final residual = 0.011617, No Iterations 1
time step continuity errors : sum local = 1.48247e-17, global = -1.18716e-19, cumulative = -5.09844e-18
Pressure gradient source: uncorrected Ubar = 1.00001, pressure gradient = 0.312006
GAMG:  Solving for p, Initial residual = 0.415457, Final residual = 0.00740326, No Iterations 1
time step continuity errors : sum local = 1.51187e-17, global = -3.73766e-20, cumulative = -5.13582e-18
Pressure gradient source: uncorrected Ubar = 1.00001, pressure gradient = 0.310255
GAMG:  Solving for p, Initial residual = 0.42218, Final residual = 9.02227e-07, No Iterations 9
time step continuity errors : sum local = 1.4939e-17, global = -5.94283e-20, cumulative = -5.19525e-18
Pressure gradient source: uncorrected Ubar = 1.00001, pressure gradient = 0.309812
ExecutionTime = 0.81 s  ClockTime = 1 s

Courant Number mean: 0.200015 max: 0.220818
Time = 0.2

PIMPLE: iteration 1
GAMG:  Solving for p, Initial residual = 0.646119, Final residual = 0.0131278, No Iterations 1
time step continuity errors : sum local = 1.4511e-17, global = 2.92176e-20, cumulative = -5.16603e-18
Pressure gradient source: uncorrected Ubar = 1.00001, pressure gradient = 0.308396
GAMG:  Solving for p, Initial residual = 0.410676, Final residual = 0.00691375, No Iterations 1
time step continuity errors : sum local = 1.47962e-17, global = 2.79063e-20, cumulative = -5.13812e-18
Pressure gradient source: uncorrected Ubar = 1.00001, pressure gradient = 0.306717
GAMG:  Solving for p, Initial residual = 0.414764, Final residual = 5.96783e-07, No Iterations 10
time step continuity errors : sum local = 1.47515e-17, global = -1.06587e-19, cumulative = -5.24471e-18
Pressure gradient source: uncorrected Ubar = 1.00001, pressure gradient = 0.306291
ExecutionTime = 0.83 s  ClockTime = 1 s

Courant Number mean: 0.200014 max: 0.221119
Time = 0.205

PIMPLE: iteration 1
GAMG:  Solving for p, Initial residual = 0.645193, Final residual = 0.0113241, No Iterations 1
time step continuity errors : sum local = 1.45515e-17, global = -1.51441e-19, cumulative = -5.39615e-18
Pressure gradient source: uncorrected Ubar = 1.00001, pressure gradient = 0.304933
GAMG:  Solving for p, Initial residual = 0.41293, Final residual = 0.00706716, No Iterations 1
time step continuity errors : sum local = 1.49093e-17, global = 1.55061e-20, cumulative = -5.38064e-18
Pressure gradient source: uncorrected Ubar = 1.00001, pressure gradient = 0.303322
GAMG:  Solving for p, Initial residual = 0.410483, Final residual = 7.54978e-07, No Iterations 10
time step continuity errors : sum local = 1.52042e-17, global = 8.89021e-20, cumulative = -5.29174e-18
Pressure gradient source: uncorrected Ubar = 1.00001, pressure gradient = 0.302912
ExecutionTime = 0.85 s  ClockTime = 1 s

Courant Number mean: 0.200013 max: 0.221417
Time = 0.21

PIMPLE: iteration 1
GAMG:  Solving for p, Initial residual = 0.623429, Final residual = 0.0109864, No Iterations 1
time step continuity errors : sum local = 1.47233e-17, global = 3.42535e-20, cumulative = -5.25749e-18
Pressure gradient source: uncorrected Ubar = 1, pressure gradient = 0.301607
GAMG:  Solving for p, Initial residual = 0.416508, Final residual = 0.00700571, No Iterations 1
time step continuity errors : sum local = 1.49371e-17, global = -1.54702e-19, cumulative = -5.41219e-18
Pressure gradient source: uncorrected Ubar = 1.00001, pressure gradient = 0.30006
GAMG:  Solving for p, Initial residual = 0.419266, Final residual = 5.34117e-07, No Iterations 11
time step continuity errors : sum local = 1.4743e-17, global = 1.09132e-19, cumulative = -5.30306e-18
Pressure gradient source: uncorrected Ubar = 1.00001, pressure gradient = 0.299665
ExecutionTime = 0.87 s  ClockTime = 1 s

Courant Number mean: 0.200012 max: 0.221712
Time = 0.215

PIMPLE: iteration 1
GAMG:  Solving for p, Initial residual = 0.636291, Final residual = 0.0146793, No Iterations 1
time step continuity errors : sum local = 1.48288e-17, global = 2.29456e-20, cumulative = -5.28011e-18
Pressure gradient source: uncorrected Ubar = 1, pressure gradient = 0.298411
GAMG:  Solving for p, Initial residual = 0.401661, Final residual = 0.00732346, No Iterations 1
time step continuity errors : sum local = 1.46997e-17, global = 2.85436e-21, cumulative = -5.27726e-18
Pressure gradient source: uncorrected Ubar = 1.00001, pressure gradient = 0.296923
GAMG:  Solving for p, Initial residual = 0.415853, Final residual = 2.30391e-07, No Iterations 9
time step continuity errors : sum local = 1.4841e-17, global = -1.1207e-20, cumulative = -5.28847e-18
Pressure gradient source: uncorrected Ubar = 1.00001, pressure gradient = 0.296542
ExecutionTime = 0.89 s  ClockTime = 1 s

Courant Number mean: 0.200012 max: 0.222004
Time = 0.22

PIMPLE: iteration 1
GAMG:  Solving for p, Initial residual = 0.665174, Final residual = 0.0127462, No Iterations 1
time step continuity errors : sum local = 1.46515e-17, global = 1.61979e-19, cumulative = -5.12649e-18
Pressure gradient source: uncorrected Ubar = 1, pressure gradient = 0.295336
GAMG:  Solving for p, Initial residual = 0.405911, Final residual = 0.00731348, No Iterations 1
time step continuity errors : sum local = 1.4744e-17, global = -9.40405e-20, cumulative = -5.22053e-18
Pressure gradient source: uncorrected Ubar = 1.00001, pressure gradient = 0.293904
GAMG:  Solving for p, Initial residual = 0.396692, Final residual = 4.18159e-07, No Iterations 9
time step continuity errors : sum local = 1.48797e-17, global = -1.92772e-19, cumulative = -5.4133e-18
Pressure gradient source: uncorrected Ubar = 1.00001, pressure gradient = 0.293536
ExecutionTime = 0.91 s  ClockTime = 1 s

Courant Number mean: 0.200011 max: 0.222292
Time = 0.225

PIMPLE: iteration 1
GAMG:  Solving for p, Initial residual = 0.634435, Final residual = 0.0129613, No Iterations 1
time step continuity errors : sum local = 1.48946e-17, global = 1.50405e-19, cumulative = -5.26289e-18
Pressure gradient source: uncorrected Ubar = 1, pressure gradient = 0.292373
GAMG:  Solving for p, Initial residual = 0.416643, Final residual = 0.00808688, No Iterations 1
time step continuity errors : sum local = 1.48649e-17, global = -4.0435e-20, cumulative = -5.30333e-18
Pressure gradient source: uncorrected Ubar = 1.00001, pressure gradient = 0.290994
GAMG:  Solving for p, Initial residual = 0.41854, Final residual = 5.99558e-07, No Iterations 9
time step continuity errors : sum local = 1.49916e-17, global = -7.46136e-20, cumulative = -5.37794e-18
Pressure gradient source: uncorrected Ubar = 1.00001, pressure gradient = 0.290638
ExecutionTime = 0.92 s  ClockTime = 1 s

Courant Number mean: 0.200011 max: 0.222579
Time = 0.23

PIMPLE: iteration 1
GAMG:  Solving for p, Initial residual = 0.652907, Final residual = 0.0129931, No Iterations 1
time step continuity errors : sum local = 1.46524e-17, global = 3.86164e-20, cumulative = -5.33933e-18
Pressure gradient source: uncorrected Ubar = 1, pressure gradient = 0.289518
GAMG:  Solving for p, Initial residual = 0.403155, Final residual = 0.00733277, No Iterations 1
time step continuity errors : sum local = 1.48576e-17, global = 8.01994e-20, cumulative = -5.25913e-18
Pressure gradient source: uncorrected Ubar = 1.00001, pressure gradient = 0.288188
GAMG:  Solving for p, Initial residual = 0.410357, Final residual = 9.07996e-07, No Iterations 8
time step continuity errors : sum local = 1.47054e-17, global = 1.66689e-19, cumulative = -5.09244e-18
Pressure gradient source: uncorrected Ubar = 1.00001, pressure gradient = 0.287844
ExecutionTime = 0.94 s  ClockTime = 1 s

Courant Number mean: 0.20001 max: 0.222862
Time = 0.235

PIMPLE: iteration 1
GAMG:  Solving for p, Initial residual = 0.651227, Final residual = 0.0140796, No Iterations 1
time step continuity errors : sum local = 1.49318e-17, global = -1.05994e-19, cumulative = -5.19843e-18
Pressure gradient source: uncorrected Ubar = 1, pressure gradient = 0.286763
GAMG:  Solving for p, Initial residual = 0.409629, Final residual = 0.00793787, No Iterations 1
time step continuity errors : sum local = 1.46046e-17, global = -2.13123e-20, cumulative = -5.21974e-18
Pressure gradient source: uncorrected Ubar = 1.00001, pressure gradient = 0.285479
GAMG:  Solving for p, Initial residual = 0.419894, Final residual = 8.94317e-07, No Iterations 10
time step continuity errors : sum local = 1.48946e-17, global = -2.10552e-19, cumulative = -5.4303e-18
Pressure gradient source: uncorrected Ubar = 1.00001, pressure gradient = 0.285146
ExecutionTime = 0.96 s  ClockTime = 1 s

Courant Number mean: 0.20001 max: 0.223143
Time = 0.24

PIMPLE: iteration 1
GAMG:  Solving for p, Initial residual = 0.670269, Final residual = 0.0126203, No Iterations 1
time step continuity errors : sum local = 1.45225e-17, global = 1.53216e-19, cumulative = -5.27708e-18
Pressure gradient source: uncorrected Ubar = 1, pressure gradient = 0.284102
GAMG:  Solving for p, Initial residual = 0.401328, Final residual = 0.00787095, No Iterations 1
time step continuity errors : sum local = 1.47012e-17, global = -3.25763e-19, cumulative = -5.60284e-18
Pressure gradient source: uncorrected Ubar = 1.00001, pressure gradient = 0.282862
GAMG:  Solving for p, Initial residual = 0.393616, Final residual = 4.7452e-07, No Iterations 11
time step continuity errors : sum local = 1.48915e-17, global = -5.28448e-20, cumulative = -5.65569e-18
Pressure gradient source: uncorrected Ubar = 1.00001, pressure gradient = 0.28254
ExecutionTime = 0.98 s  ClockTime = 1 s

Courant Number mean: 0.200009 max: 0.223421
Time = 0.245

PIMPLE: iteration 1
GAMG:  Solving for p, Initial residual = 0.652418, Final residual = 0.0121689, No Iterations 1
time step continuity errors : sum local = 1.49563e-17, global = -7.98922e-20, cumulative = -5.73558e-18
Pressure gradient source: uncorrected Ubar = 1, pressure gradient = 0.281531
GAMG:  Solving for p, Initial residual = 0.413614, Final residual = 0.0070614, No Iterations 1
time step continuity errors : sum local = 1.49122e-17, global = -6.7236e-20, cumulative = -5.80282e-18
Pressure gradient source: uncorrected Ubar = 1.00001, pressure gradient = 0.280333
GAMG:  Solving for p, Initial residual = 0.39431, Final residual = 9.56138e-07, No Iterations 9
time step continuity errors : sum local = 1.50476e-17, global = -8.53408e-20, cumulative = -5.88816e-18
Pressure gradient source: uncorrected Ubar = 1.00001, pressure gradient = 0.280021
ExecutionTime = 1 s  ClockTime = 1 s

Courant Number mean: 0.200009 max: 0.223697
Time = 0.25

PIMPLE: iteration 1
GAMG:  Solving for p, Initial residual = 0.630133, Final residual = 0.0122275, No Iterations 1
time step continuity errors : sum local = 1.50195e-17, global = 1.42981e-19, cumulative = -5.74518e-18
Pressure gradient source: uncorrected Ubar = 1, pressure gradient = 0.279045
GAMG:  Solving for p, Initial residual = 0.41787, Final residual = 0.00996982, No Iterations 1
time step continuity errors : sum local = 1.49814e-17, global = 7.09193e-20, cumulative = -5.67426e-18
Pressure gradient source: uncorrected Ubar = 1.00001, pressure gradient = 0.277885
GAMG:  Solving for p, Initial residual = 0.404889, Final residual = 3.0963e-07, No Iterations 10
time step continuity errors : sum local = 1.48449e-17, global = -6.58767e-21, cumulative = -5.68084e-18
Pressure gradient source: uncorrected Ubar = 1.00001, pressure gradient = 0.277583
ExecutionTime = 1.02 s  ClockTime = 1 s

Courant Number mean: 0.200009 max: 0.22397
Time = 0.255

PIMPLE: iteration 1
GAMG:  Solving for p, Initial residual = 0.625928, Final residual = 0.0106269, No Iterations 1
time step continuity errors : sum local = 1.51886e-17, global = 4.401e-20, cumulative = -5.63683e-18
Pressure gradient source: uncorrected Ubar = 1, pressure gradient = 0.276638
GAMG:  Solving for p, Initial residual = 0.404299, Final residual = 0.00779646, No Iterations 1
time step continuity errors : sum local = 1.49802e-17, global = -2.40357e-19, cumulative = -5.87719e-18
Pressure gradient source: uncorrected Ubar = 1.00001, pressure gradient = 0.275516
GAMG:  Solving for p, Initial residual = 0.424826, Final residual = 8.94273e-07, No Iterations 9
time step continuity errors : sum local = 1.49918e-17, global = -2.38115e-20, cumulative = -5.901e-18
Pressure gradient source: uncorrected Ubar = 1.00001, pressure gradient = 0.275222
ExecutionTime = 1.03 s  ClockTime = 1 s

Courant Number mean: 0.200008 max: 0.224241
Time = 0.26

PIMPLE: iteration 1
GAMG:  Solving for p, Initial residual = 0.655149, Final residual = 0.0122302, No Iterations 1
time step continuity errors : sum local = 1.45623e-17, global = 9.09159e-20, cumulative = -5.81009e-18
Pressure gradient source: uncorrected Ubar = 1, pressure gradient = 0.274308
GAMG:  Solving for p, Initial residual = 0.400725, Final residual = 0.00722642, No Iterations 1
time step continuity errors : sum local = 1.48235e-17, global = 1.14754e-19, cumulative = -5.69533e-18
Pressure gradient source: uncorrected Ubar = 1.00001, pressure gradient = 0.27322
GAMG:  Solving for p, Initial residual = 0.420463, Final residual = 1.65208e-07, No Iterations 9
time step continuity errors : sum local = 1.50082e-17, global = 7.73613e-20, cumulative = -5.61797e-18
Pressure gradient source: uncorrected Ubar = 1.00001, pressure gradient = 0.272935
ExecutionTime = 1.05 s  ClockTime = 1 s

Courant Number mean: 0.200008 max: 0.22451
Time = 0.265

PIMPLE: iteration 1
GAMG:  Solving for p, Initial residual = 0.666928, Final residual = 0.012653, No Iterations 1
time step continuity errors : sum local = 1.4517e-17, global = -1.69293e-19, cumulative = -5.78726e-18
Pressure gradient source: uncorrected Ubar = 1, pressure gradient = 0.272049
GAMG:  Solving for p, Initial residual = 0.415607, Final residual = 0.00741184, No Iterations 1
time step continuity errors : sum local = 1.49856e-17, global = 1.23252e-19, cumulative = -5.66401e-18
Pressure gradient source: uncorrected Ubar = 1.00001, pressure gradient = 0.270995
GAMG:  Solving for p, Initial residual = 0.418721, Final residual = 2.34362e-07, No Iterations 8
time step continuity errors : sum local = 1.46942e-17, global = -2.81461e-20, cumulative = -5.69216e-18
Pressure gradient source: uncorrected Ubar = 1.00001, pressure gradient = 0.270718
ExecutionTime = 1.07 s  ClockTime = 1 s

Courant Number mean: 0.200008 max: 0.224777
Time = 0.27

PIMPLE: iteration 1
GAMG:  Solving for p, Initial residual = 0.645907, Final residual = 0.0129098, No Iterations 1
time step continuity errors : sum local = 1.46366e-17, global = 2.92222e-19, cumulative = -5.39994e-18
Pressure gradient source: uncorrected Ubar = 1, pressure gradient = 0.269859
GAMG:  Solving for p, Initial residual = 0.415526, Final residual = 0.00635751, No Iterations 1
time step continuity errors : sum local = 1.47378e-17, global = -2.45418e-21, cumulative = -5.40239e-18
Pressure gradient source: uncorrected Ubar = 1.00001, pressure gradient = 0.268836
GAMG:  Solving for p, Initial residual = 0.399471, Final residual = 6.64885e-07, No Iterations 9
time step continuity errors : sum local = 1.46984e-17, global = -1.40439e-19, cumulative = -5.54283e-18
Pressure gradient source: uncorrected Ubar = 1.00001, pressure gradient = 0.268567
ExecutionTime = 1.09 s  ClockTime = 1 s

Courant Number mean: 0.200007 max: 0.225041
Time = 0.275

PIMPLE: iteration 1
GAMG:  Solving for p, Initial residual = 0.643367, Final residual = 0.0122181, No Iterations 1
time step continuity errors : sum local = 1.45544e-17, global = -5.51413e-21, cumulative = -5.54834e-18
Pressure gradient source: uncorrected Ubar = 1, pressure gradient = 0.267733
GAMG:  Solving for p, Initial residual = 0.414857, Final residual = 0.006679, No Iterations 1
time step continuity errors : sum local = 1.49682e-17, global = 1.17608e-19, cumulative = -5.43074e-18
Pressure gradient source: uncorrected Ubar = 1.00001, pressure gradient = 0.266741
GAMG:  Solving for p, Initial residual = 0.404188, Final residual = 2.00117e-07, No Iterations 10
time step continuity errors : sum local = 1.49295e-17, global = -9.93616e-20, cumulative = -5.5301e-18
Pressure gradient source: uncorrected Ubar = 1.00001, pressure gradient = 0.26648
ExecutionTime = 1.1 s  ClockTime = 1 s

Courant Number mean: 0.200007 max: 0.225304
Time = 0.28

PIMPLE: iteration 1
GAMG:  Solving for p, Initial residual = 0.622698, Final residual = 0.0107861, No Iterations 1
time step continuity errors : sum local = 1.47186e-17, global = -1.30148e-19, cumulative = -5.66024e-18
Pressure gradient source: uncorrected Ubar = 1, pressure gradient = 0.26567
GAMG:  Solving for p, Initial residual = 0.414017, Final residual = 0.00710649, No Iterations 1
time step continuity errors : sum local = 1.47775e-17, global = -1.44234e-21, cumulative = -5.66169e-18
Pressure gradient source: uncorrected Ubar = 1.00001, pressure gradient = 0.264706
GAMG:  Solving for p, Initial residual = 0.424269, Final residual = 5.18103e-07, No Iterations 10
time step continuity errors : sum local = 1.47287e-17, global = 1.87517e-19, cumulative = -5.47417e-18
Pressure gradient source: uncorrected Ubar = 1.00001, pressure gradient = 0.264452
ExecutionTime = 1.12 s  ClockTime = 1 s

Courant Number mean: 0.200007 max: 0.225565
Time = 0.285

PIMPLE: iteration 1
GAMG:  Solving for p, Initial residual = 0.649939, Final residual = 0.0123468, No Iterations 1
time step continuity errors : sum local = 1.47572e-17, global = 9.27115e-22, cumulative = -5.47324e-18
Pressure gradient source: uncorrected Ubar = 1, pressure gradient = 0.263665
GAMG:  Solving for p, Initial residual = 0.437637, Final residual = 0.00761079, No Iterations 1
time step continuity errors : sum local = 1.49755e-17, global = 4.05281e-20, cumulative = -5.43271e-18
Pressure gradient source: uncorrected Ubar = 1.00001, pressure gradient = 0.262729
GAMG:  Solving for p, Initial residual = 0.408123, Final residual = 3.77667e-07, No Iterations 8
time step continuity errors : sum local = 1.47897e-17, global = 5.62343e-20, cumulative = -5.37648e-18
Pressure gradient source: uncorrected Ubar = 1.00001, pressure gradient = 0.262482
ExecutionTime = 1.14 s  ClockTime = 1 s

Courant Number mean: 0.200007 max: 0.225823
Time = 0.29

PIMPLE: iteration 1
GAMG:  Solving for p, Initial residual = 0.653673, Final residual = 0.0118882, No Iterations 1
time step continuity errors : sum local = 1.46096e-17, global = 1.73368e-19, cumulative = -5.20311e-18
Pressure gradient source: uncorrected Ubar = 1, pressure gradient = 0.261717
GAMG:  Solving for p, Initial residual = 0.423623, Final residual = 0.00736205, No Iterations 1
time step continuity errors : sum local = 1.49151e-17, global = 3.1246e-19, cumulative = -4.89065e-18
Pressure gradient source: uncorrected Ubar = 1.00001, pressure gradient = 0.260807
GAMG:  Solving for p, Initial residual = 0.374462, Final residual = 3.66718e-07, No Iterations 10
time step continuity errors : sum local = 1.46275e-17, global = 4.97028e-20, cumulative = -4.84095e-18
Pressure gradient source: uncorrected Ubar = 1.00001, pressure gradient = 0.260566
ExecutionTime = 1.16 s  ClockTime = 1 s

Courant Number mean: 0.200007 max: 0.22608
Time = 0.295

PIMPLE: iteration 1
GAMG:  Solving for p, Initial residual = 0.649666, Final residual = 0.0121011, No Iterations 1
time step continuity errors : sum local = 1.47939e-17, global = 4.22118e-20, cumulative = -4.79874e-18
Pressure gradient source: uncorrected Ubar = 1, pressure gradient = 0.259823
GAMG:  Solving for p, Initial residual = 0.410758, Final residual = 0.00676506, No Iterations 1
time step continuity errors : sum local = 1.46105e-17, global = -1.02441e-19, cumulative = -4.90118e-18
Pressure gradient source: uncorrected Ubar = 1.00001, pressure gradient = 0.258937
GAMG:  Solving for p, Initial residual = 0.418474, Final residual = 5.75905e-07, No Iterations 10
time step continuity errors : sum local = 1.48773e-17, global = -2.7358e-20, cumulative = -4.92854e-18
Pressure gradient source: uncorrected Ubar = 1.00001, pressure gradient = 0.258703
ExecutionTime = 1.17 s  ClockTime = 1 s

Courant Number mean: 0.200006 max: 0.226335
Time = 0.3

PIMPLE: iteration 1
GAMG:  Solving for p, Initial residual = 0.638363, Final residual = 0.0106865, No Iterations 1
time step continuity errors : sum local = 1.48178e-17, global = 2.54639e-19, cumulative = -4.6739e-18
Pressure gradient source: uncorrected Ubar = 1, pressure gradient = 0.25798
GAMG:  Solving for p, Initial residual = 0.413464, Final residual = 0.0065772, No Iterations 1
time step continuity errors : sum local = 1.47419e-17, global = 2.01526e-20, cumulative = -4.65375e-18
Pressure gradient source: uncorrected Ubar = 1.00001, pressure gradient = 0.257118
GAMG:  Solving for p, Initial residual = 0.432028, Final residual = 5.71473e-07, No Iterations 11
time step continuity errors : sum local = 1.43383e-17, global = 1.42506e-19, cumulative = -4.51124e-18
Pressure gradient source: uncorrected Ubar = 1.00001, pressure gradient = 0.25689
ExecutionTime = 1.19 s  ClockTime = 2 s

Courant Number mean: 0.200006 max: 0.226588
Time = 0.305

PIMPLE: iteration 1
GAMG:  Solving for p, Initial residual = 0.663007, Final residual = 0.0115888, No Iterations 1
time step continuity errors : sum local = 1.49426e-17, global = 3.98117e-20, cumulative = -4.47143e-18
Pressure gradient source: uncorrected Ubar = 1, pressure gradient = 0.256185
GAMG:  Solving for p, Initial residual = 0.41936, Final residual = 0.00721944, No Iterations 1
time step continuity errors : sum local = 1.54031e-17, global = 2.10332e-19, cumulative = -4.2611e-18
Pressure gradient source: uncorrected Ubar = 1.00001, pressure gradient = 0.255347
GAMG:  Solving for p, Initial residual = 0.406645, Final residual = 3.8872e-07, No Iterations 10
time step continuity errors : sum local = 1.5136e-17, global = -1.04733e-19, cumulative = -4.36583e-18
Pressure gradient source: uncorrected Ubar = 1.00001, pressure gradient = 0.255124
ExecutionTime = 1.21 s  ClockTime = 2 s

Courant Number mean: 0.200006 max: 0.226839
Time = 0.31

PIMPLE: iteration 1
GAMG:  Solving for p, Initial residual = 0.647125, Final residual = 0.0132669, No Iterations 1
time step continuity errors : sum local = 1.47064e-17, global = 1.1248e-19, cumulative = -4.25335e-18
Pressure gradient source: uncorrected Ubar = 1, pressure gradient = 0.254438
GAMG:  Solving for p, Initial residual = 0.423297, Final residual = 0.0078528, No Iterations 1
time step continuity errors : sum local = 1.47221e-17, global = 1.3594e-20, cumulative = -4.23976e-18
Pressure gradient source: uncorrected Ubar = 1.00001, pressure gradient = 0.253621
GAMG:  Solving for p, Initial residual = 0.408466, Final residual = 2.61761e-07, No Iterations 10
time step continuity errors : sum local = 1.48183e-17, global = -1.09911e-19, cumulative = -4.34967e-18
Pressure gradient source: uncorrected Ubar = 1.00001, pressure gradient = 0.253404
ExecutionTime = 1.23 s  ClockTime = 2 s

Courant Number mean: 0.200006 max: 0.227089
Time = 0.315

PIMPLE: iteration 1
GAMG:  Solving for p, Initial residual = 0.663043, Final residual = 0.0160766, No Iterations 1
time step continuity errors : sum local = 1.49664e-17, global = 2.42301e-19, cumulative = -4.10737e-18
Pressure gradient source: uncorrected Ubar = 1, pressure gradient = 0.252736
GAMG:  Solving for p, Initial residual = 0.426197, Final residual = 0.00741354, No Iterations 1
time step continuity errors : sum local = 1.47991e-17, global = -8.44737e-21, cumulative = -4.11581e-18
Pressure gradient source: uncorrected Ubar = 1.00001, pressure gradient = 0.25194
GAMG:  Solving for p, Initial residual = 0.403802, Final residual = 8.02902e-07, No Iterations 8
time step continuity errors : sum local = 1.48756e-17, global = 1.80381e-19, cumulative = -3.93543e-18
Pressure gradient source: uncorrected Ubar = 1.00001, pressure gradient = 0.251728
ExecutionTime = 1.25 s  ClockTime = 2 s

Courant Number mean: 0.200006 max: 0.227337
Time = 0.32

PIMPLE: iteration 1
GAMG:  Solving for p, Initial residual = 0.657984, Final residual = 0.0126302, No Iterations 1
time step continuity errors : sum local = 1.45961e-17, global = 3.18763e-19, cumulative = -3.61667e-18
Pressure gradient source: uncorrected Ubar = 1, pressure gradient = 0.251077
GAMG:  Solving for p, Initial residual = 0.403074, Final residual = 0.00770389, No Iterations 1
time step continuity errors : sum local = 1.51603e-17, global = 9.80911e-20, cumulative = -3.51858e-18
Pressure gradient source: uncorrected Ubar = 1.00001, pressure gradient = 0.250301
GAMG:  Solving for p, Initial residual = 0.396003, Final residual = 6.53937e-07, No Iterations 10
time step continuity errors : sum local = 1.49655e-17, global = -2.37321e-19, cumulative = -3.7559e-18
Pressure gradient source: uncorrected Ubar = 1.00001, pressure gradient = 0.250094
ExecutionTime = 1.27 s  ClockTime = 2 s

Courant Number mean: 0.200006 max: 0.227584
Time = 0.325

PIMPLE: iteration 1
GAMG:  Solving for p, Initial residual = 0.669539, Final residual = 0.01244, No Iterations 1
time step continuity errors : sum local = 1.46345e-17, global = 9.90657e-20, cumulative = -3.65683e-18
Pressure gradient source: uncorrected Ubar = 1, pressure gradient = 0.249459
GAMG:  Solving for p, Initial residual = 0.401105, Final residual = 0.00746463, No Iterations 1
time step continuity errors : sum local = 1.47145e-17, global = -5.40405e-20, cumulative = -3.71087e-18
Pressure gradient source: uncorrected Ubar = 1.00001, pressure gradient = 0.248702
GAMG:  Solving for p, Initial residual = 0.40908, Final residual = 3.84827e-07, No Iterations 11
time step continuity errors : sum local = 1.48665e-17, global = -1.26468e-19, cumulative = -3.83734e-18
Pressure gradient source: uncorrected Ubar = 1.00001, pressure gradient = 0.248501
ExecutionTime = 1.29 s  ClockTime = 2 s

Courant Number mean: 0.200005 max: 0.227828
Time = 0.33

PIMPLE: iteration 1
GAMG:  Solving for p, Initial residual = 0.654146, Final residual = 0.0139229, No Iterations 1
time step continuity errors : sum local = 1.47603e-17, global = 5.65802e-20, cumulative = -3.78076e-18
Pressure gradient source: uncorrected Ubar = 1, pressure gradient = 0.247881
GAMG:  Solving for p, Initial residual = 0.409209, Final residual = 0.00825318, No Iterations 1
time step continuity errors : sum local = 1.44994e-17, global = -3.11977e-20, cumulative = -3.81196e-18
Pressure gradient source: uncorrected Ubar = 1.00001, pressure gradient = 0.247143
GAMG:  Solving for p, Initial residual = 0.40257, Final residual = 2.96412e-07, No Iterations 11
time step continuity errors : sum local = 1.50342e-17, global = 1.34868e-19, cumulative = -3.67709e-18
Pressure gradient source: uncorrected Ubar = 1.00001, pressure gradient = 0.246946
ExecutionTime = 1.31 s  ClockTime = 2 s

Courant Number mean: 0.200005 max: 0.228072
Time = 0.335

PIMPLE: iteration 1
GAMG:  Solving for p, Initial residual = 0.630419, Final residual = 0.0127405, No Iterations 1
time step continuity errors : sum local = 1.46208e-17, global = -9.15254e-20, cumulative = -3.76862e-18
Pressure gradient source: uncorrected Ubar = 1, pressure gradient = 0.246341
GAMG:  Solving for p, Initial residual = 0.414307, Final residual = 0.00869866, No Iterations 1
time step continuity errors : sum local = 1.47209e-17, global = -2.28589e-19, cumulative = -3.99721e-18
Pressure gradient source: uncorrected Ubar = 1.00001, pressure gradient = 0.245621
GAMG:  Solving for p, Initial residual = 0.401405, Final residual = 8.23991e-07, No Iterations 10
time step continuity errors : sum local = 1.47046e-17, global = -3.57466e-20, cumulative = -4.03295e-18
Pressure gradient source: uncorrected Ubar = 1.00001, pressure gradient = 0.245428
ExecutionTime = 1.33 s  ClockTime = 2 s

Courant Number mean: 0.200005 max: 0.228314
Time = 0.34

PIMPLE: iteration 1
GAMG:  Solving for p, Initial residual = 0.638548, Final residual = 0.0120763, No Iterations 1
time step continuity errors : sum local = 1.47129e-17, global = -2.06692e-19, cumulative = -4.23964e-18
Pressure gradient source: uncorrected Ubar = 1, pressure gradient = 0.244838
GAMG:  Solving for p, Initial residual = 0.416625, Final residual = 0.00731946, No Iterations 1
time step continuity errors : sum local = 1.51395e-17, global = -8.65427e-20, cumulative = -4.32619e-18
Pressure gradient source: uncorrected Ubar = 1, pressure gradient = 0.244134
GAMG:  Solving for p, Initial residual = 0.410756, Final residual = 9.94232e-07, No Iterations 9
time step continuity errors : sum local = 1.47584e-17, global = 3.60294e-20, cumulative = -4.29016e-18
Pressure gradient source: uncorrected Ubar = 1.00001, pressure gradient = 0.243946
ExecutionTime = 1.34 s  ClockTime = 2 s

Courant Number mean: 0.200005 max: 0.228554
Time = 0.345

PIMPLE: iteration 1
GAMG:  Solving for p, Initial residual = 0.649923, Final residual = 0.0116547, No Iterations 1
time step continuity errors : sum local = 1.46236e-17, global = -1.01547e-19, cumulative = -4.3917e-18
Pressure gradient source: uncorrected Ubar = 1, pressure gradient = 0.24337
GAMG:  Solving for p, Initial residual = 0.441239, Final residual = 0.0067037, No Iterations 1
time step continuity errors : sum local = 1.46396e-17, global = -1.73077e-19, cumulative = -4.56478e-18
Pressure gradient source: uncorrected Ubar = 1, pressure gradient = 0.242682
GAMG:  Solving for p, Initial residual = 0.406802, Final residual = 9.85752e-07, No Iterations 11
time step continuity errors : sum local = 1.4558e-17, global = -1.63956e-19, cumulative = -4.72874e-18
Pressure gradient source: uncorrected Ubar = 1.00001, pressure gradient = 0.242498
ExecutionTime = 1.36 s  ClockTime = 2 s

Courant Number mean: 0.200005 max: 0.228793
Time = 0.35

PIMPLE: iteration 1
GAMG:  Solving for p, Initial residual = 0.641372, Final residual = 0.0112129, No Iterations 1
time step continuity errors : sum local = 1.48765e-17, global = -8.6753e-20, cumulative = -4.81549e-18
Pressure gradient source: uncorrected Ubar = 1, pressure gradient = 0.241935
GAMG:  Solving for p, Initial residual = 0.416571, Final residual = 0.00675336, No Iterations 1
time step continuity errors : sum local = 1.49009e-17, global = 9.47636e-20, cumulative = -4.72073e-18
Pressure gradient source: uncorrected Ubar = 1, pressure gradient = 0.241264
GAMG:  Solving for p, Initial residual = 0.412039, Final residual = 9.60608e-07, No Iterations 10
time step continuity errors : sum local = 1.47692e-17, global = 1.07778e-19, cumulative = -4.61295e-18
Pressure gradient source: uncorrected Ubar = 1.00001, pressure gradient = 0.241084
ExecutionTime = 1.37 s  ClockTime = 2 s

Courant Number mean: 0.200005 max: 0.229031
Time = 0.355

PIMPLE: iteration 1
GAMG:  Solving for p, Initial residual = 0.636087, Final residual = 0.0130201, No Iterations 1
time step continuity errors : sum local = 1.48655e-17, global = 2.43927e-21, cumulative = -4.61051e-18
Pressure gradient source: uncorrected Ubar = 1, pressure gradient = 0.240534
GAMG:  Solving for p, Initial residual = 0.422822, Final residual = 0.00759865, No Iterations 1
time step continuity errors : sum local = 1.4709e-17, global = -1.75497e-19, cumulative = -4.78601e-18
Pressure gradient source: uncorrected Ubar = 1, pressure gradient = 0.239878
GAMG:  Solving for p, Initial residual = 0.416371, Final residual = 7.51518e-07, No Iterations 10
time step continuity errors : sum local = 1.47497e-17, global = -4.92847e-20, cumulative = -4.83529e-18
Pressure gradient source: uncorrected Ubar = 1.00001, pressure gradient = 0.239701
ExecutionTime = 1.38 s  ClockTime = 2 s

Courant Number mean: 0.200005 max: 0.229267
Time = 0.36

PIMPLE: iteration 1
GAMG:  Solving for p, Initial residual = 0.666324, Final residual = 0.0134219, No Iterations 1
time step continuity errors : sum local = 1.45677e-17, global = -2.10064e-19, cumulative = -5.04536e-18
Pressure gradient source: uncorrected Ubar = 1, pressure gradient = 0.239164
GAMG:  Solving for p, Initial residual = 0.413251, Final residual = 0.00743549, No Iterations 1
time step continuity errors : sum local = 1.48655e-17, global = -1.96305e-20, cumulative = -5.06499e-18
Pressure gradient source: uncorrected Ubar = 1, pressure gradient = 0.238522
GAMG:  Solving for p, Initial residual = 0.393102, Final residual = 9.41868e-07, No Iterations 10
time step continuity errors : sum local = 1.48489e-17, global = -1.2414e-19, cumulative = -5.18913e-18
Pressure gradient source: uncorrected Ubar = 1.00001, pressure gradient = 0.23835
ExecutionTime = 1.39 s  ClockTime = 2 s

Courant Number mean: 0.200005 max: 0.229502
Time = 0.365

PIMPLE: iteration 1
GAMG:  Solving for p, Initial residual = 0.665036, Final residual = 0.0118702, No Iterations 1
time step continuity errors : sum local = 1.48109e-17, global = 8.91868e-20, cumulative = -5.09994e-18
Pressure gradient source: uncorrected Ubar = 1, pressure gradient = 0.237824
GAMG:  Solving for p, Initial residual = 0.397252, Final residual = 0.00720446, No Iterations 1
time step continuity errors : sum local = 1.45838e-17, global = -6.76013e-22, cumulative = -5.10062e-18
Pressure gradient source: uncorrected Ubar = 1, pressure gradient = 0.237196
GAMG:  Solving for p, Initial residual = 0.402836, Final residual = 5.65798e-07, No Iterations 9
time step continuity errors : sum local = 1.46596e-17, global = -1.90528e-19, cumulative = -5.29114e-18
Pressure gradient source: uncorrected Ubar = 1, pressure gradient = 0.237027
ExecutionTime = 1.41 s  ClockTime = 2 s

Courant Number mean: 0.200004 max: 0.229735
Time = 0.37

PIMPLE: iteration 1
GAMG:  Solving for p, Initial residual = 0.674363, Final residual = 0.0135153, No Iterations 1
time step continuity errors : sum local = 1.48645e-17, global = 6.57954e-22, cumulative = -5.29049e-18
Pressure gradient source: uncorrected Ubar = 1, pressure gradient = 0.236513
GAMG:  Solving for p, Initial residual = 0.412121, Final residual = 0.00742665, No Iterations 1
time step continuity errors : sum local = 1.50751e-17, global = 2.4992e-20, cumulative = -5.26549e-18
Pressure gradient source: uncorrected Ubar = 1, pressure gradient = 0.235899
GAMG:  Solving for p, Initial residual = 0.404274, Final residual = 5.35907e-07, No Iterations 11
time step continuity errors : sum local = 1.50395e-17, global = -4.67612e-20, cumulative = -5.31226e-18
Pressure gradient source: uncorrected Ubar = 1, pressure gradient = 0.235734
ExecutionTime = 1.42 s  ClockTime = 2 s

Courant Number mean: 0.200004 max: 0.229968
Time = 0.375

PIMPLE: iteration 1
GAMG:  Solving for p, Initial residual = 0.653178, Final residual = 0.0119729, No Iterations 1
time step continuity errors : sum local = 1.47688e-17, global = -6.29352e-20, cumulative = -5.37519e-18
Pressure gradient source: uncorrected Ubar = 1, pressure gradient = 0.23523
GAMG:  Solving for p, Initial residual = 0.418066, Final residual = 0.00750699, No Iterations 1
time step continuity errors : sum local = 1.47039e-17, global = 4.62362e-20, cumulative = -5.32895e-18
Pressure gradient source: uncorrected Ubar = 1, pressure gradient = 0.23463
GAMG:  Solving for p, Initial residual = 0.42535, Final residual = 4.94416e-07, No Iterations 9
time step continuity errors : sum local = 1.49344e-17, global = 1.04817e-19, cumulative = -5.22414e-18
Pressure gradient source: uncorrected Ubar = 1, pressure gradient = 0.234468
ExecutionTime = 1.43 s  ClockTime = 2 s

Courant Number mean: 0.200004 max: 0.230199
Time = 0.38

PIMPLE: iteration 1
GAMG:  Solving for p, Initial residual = 0.64853, Final residual = 0.0145005, No Iterations 1
time step continuity errors : sum local = 1.47811e-17, global = 1.09386e-19, cumulative = -5.11475e-18
Pressure gradient source: uncorrected Ubar = 1, pressure gradient = 0.233975
GAMG:  Solving for p, Initial residual = 0.413609, Final residual = 0.00795797, No Iterations 1
time step continuity errors : sum local = 1.4738e-17, global = -7.81765e-20, cumulative = -5.19293e-18
Pressure gradient source: uncorrected Ubar = 1, pressure gradient = 0.233387
GAMG:  Solving for p, Initial residual = 0.41477, Final residual = 8.9561e-07, No Iterations 9
time step continuity errors : sum local = 1.46647e-17, global = -1.05124e-19, cumulative = -5.29805e-18
Pressure gradient source: uncorrected Ubar = 1, pressure gradient = 0.233229
ExecutionTime = 1.44 s  ClockTime = 2 s

Courant Number mean: 0.200004 max: 0.230429
Time = 0.385

PIMPLE: iteration 1
GAMG:  Solving for p, Initial residual = 0.660126, Final residual = 0.0123411, No Iterations 1
time step continuity errors : sum local = 1.44425e-17, global = -1.49518e-19, cumulative = -5.44757e-18
Pressure gradient source: uncorrected Ubar = 1, pressure gradient = 0.232746
GAMG:  Solving for p, Initial residual = 0.421929, Final residual = 0.00730675, No Iterations 1
time step continuity errors : sum local = 1.46625e-17, global = -1.85453e-20, cumulative = -5.46611e-18
Pressure gradient source: uncorrected Ubar = 1, pressure gradient = 0.23217
GAMG:  Solving for p, Initial residual = 0.424118, Final residual = 7.40927e-07, No Iterations 10
time step continuity errors : sum local = 1.47957e-17, global = -2.78247e-19, cumulative = -5.74436e-18
Pressure gradient source: uncorrected Ubar = 1, pressure gradient = 0.232015
ExecutionTime = 1.45 s  ClockTime = 2 s

Courant Number mean: 0.200004 max: 0.230657
Time = 0.39

PIMPLE: iteration 1
GAMG:  Solving for p, Initial residual = 0.674717, Final residual = 0.012668, No Iterations 1
time step continuity errors : sum local = 1.48116e-17, global = 1.65856e-19, cumulative = -5.5785e-18
Pressure gradient source: uncorrected Ubar = 1, pressure gradient = 0.231542
GAMG:  Solving for p, Initial residual = 0.404952, Final residual = 0.00757354, No Iterations 1
time step continuity errors : sum local = 1.48453e-17, global = 7.65965e-20, cumulative = -5.50191e-18
Pressure gradient source: uncorrected Ubar = 1, pressure gradient = 0.230979
GAMG:  Solving for p, Initial residual = 0.410953, Final residual = 9.64303e-07, No Iterations 8
time step continuity errors : sum local = 1.51143e-17, global = 1.20228e-19, cumulative = -5.38168e-18
Pressure gradient source: uncorrected Ubar = 1, pressure gradient = 0.230826
ExecutionTime = 1.46 s  ClockTime = 2 s

Courant Number mean: 0.200004 max: 0.230885
Time = 0.395

PIMPLE: iteration 1
GAMG:  Solving for p, Initial residual = 0.643147, Final residual = 0.0120621, No Iterations 1
time step continuity errors : sum local = 1.48329e-17, global = 1.9468e-19, cumulative = -5.187e-18
Pressure gradient source: uncorrected Ubar = 1, pressure gradient = 0.230363
GAMG:  Solving for p, Initial residual = 0.409431, Final residual = 0.00665456, No Iterations 1
time step continuity errors : sum local = 1.45522e-17, global = 5.25497e-20, cumulative = -5.13445e-18
Pressure gradient source: uncorrected Ubar = 1, pressure gradient = 0.229811
GAMG:  Solving for p, Initial residual = 0.405141, Final residual = 9.45238e-07, No Iterations 10
time step continuity errors : sum local = 1.45672e-17, global = -1.40758e-19, cumulative = -5.27521e-18
Pressure gradient source: uncorrected Ubar = 1, pressure gradient = 0.229662
ExecutionTime = 1.48 s  ClockTime = 2 s

Courant Number mean: 0.200004 max: 0.231111
Time = 0.4

PIMPLE: iteration 1
GAMG:  Solving for p, Initial residual = 0.664346, Final residual = 0.0126223, No Iterations 1
time step continuity errors : sum local = 1.48992e-17, global = -2.44816e-20, cumulative = -5.29969e-18
Pressure gradient source: uncorrected Ubar = 1, pressure gradient = 0.229208
GAMG:  Solving for p, Initial residual = 0.41808, Final residual = 0.00712054, No Iterations 1
time step continuity errors : sum local = 1.45874e-17, global = 9.67256e-20, cumulative = -5.20296e-18
Pressure gradient source: uncorrected Ubar = 1, pressure gradient = 0.228667
GAMG:  Solving for p, Initial residual = 0.416081, Final residual = 3.26913e-07, No Iterations 9
time step continuity errors : sum local = 1.4666e-17, global = -2.0935e-19, cumulative = -5.41231e-18
Pressure gradient source: uncorrected Ubar = 1, pressure gradient = 0.22852
ExecutionTime = 1.49 s  ClockTime = 2 s

Courant Number mean: 0.200004 max: 0.231336
Time = 0.405

PIMPLE: iteration 1
GAMG:  Solving for p, Initial residual = 0.641843, Final residual = 0.0122107, No Iterations 1
time step continuity errors : sum local = 1.4315e-17, global = 5.89815e-20, cumulative = -5.35333e-18
Pressure gradient source: uncorrected Ubar = 1, pressure gradient = 0.228076
GAMG:  Solving for p, Initial residual = 0.416152, Final residual = 0.00764381, No Iterations 1
time step continuity errors : sum local = 1.47255e-17, global = -1.2033e-19, cumulative = -5.47366e-18
Pressure gradient source: uncorrected Ubar = 1, pressure gradient = 0.227545
GAMG:  Solving for p, Initial residual = 0.412493, Final residual = 8.61174e-07, No Iterations 9
time step continuity errors : sum local = 1.48079e-17, global = -4.47563e-21, cumulative = -5.47814e-18
Pressure gradient source: uncorrected Ubar = 1, pressure gradient = 0.227401
ExecutionTime = 1.5 s  ClockTime = 2 s

Courant Number mean: 0.200004 max: 0.231561
Time = 0.41

PIMPLE: iteration 1
GAMG:  Solving for p, Initial residual = 0.67062, Final residual = 0.0125844, No Iterations 1
[...]
Pressure gradient source: uncorrected Ubar = 1, pressure gradient = 0.119882
ExecutionTime = 24.43 s  ClockTime = 25 s

Courant Number mean: 0.2 max: 0.299581
Time = 9.9

PIMPLE: iteration 1
GAMG:  Solving for p, Initial residual = 0.62704, Final residual = 0.0124626, No Iterations 1
time step continuity errors : sum local = 1.30506e-17, global = 2.01199e-20, cumulative = -6.42023e-17
Pressure gradient source: uncorrected Ubar = 1, pressure gradient = 0.119882
GAMG:  Solving for p, Initial residual = 0.391214, Final residual = 0.00743526, No Iterations 1
time step continuity errors : sum local = 1.2917e-17, global = -2.18941e-19, cumulative = -6.44213e-17
Pressure gradient source: uncorrected Ubar = 1, pressure gradient = 0.119882
GAMG:  Solving for p, Initial residual = 0.406744, Final residual = 6.2419e-07, No Iterations 11
time step continuity errors : sum local = 1.29492e-17, global = 6.1182e-20, cumulative = -6.43601e-17
Pressure gradient source: uncorrected Ubar = 1, pressure gradient = 0.119882
ExecutionTime = 24.45 s  ClockTime = 25 s

Courant Number mean: 0.2 max: 0.299581
Time = 9.905

PIMPLE: iteration 1
GAMG:  Solving for p, Initial residual = 0.672886, Final residual = 0.0119969, No Iterations 1
time step continuity errors : sum local = 1.34693e-17, global = -1.39796e-20, cumulative = -6.43741e-17
Pressure gradient source: uncorrected Ubar = 1, pressure gradient = 0.119882
GAMG:  Solving for p, Initial residual = 0.400703, Final residual = 0.00724388, No Iterations 1
time step continuity errors : sum local = 1.30889e-17, global = -1.23047e-19, cumulative = -6.44971e-17
Pressure gradient source: uncorrected Ubar = 1, pressure gradient = 0.119882
GAMG:  Solving for p, Initial residual = 0.406986, Final residual = 7.55602e-07, No Iterations 11
time step continuity errors : sum local = 1.31253e-17, global = 1.37649e-19, cumulative = -6.43594e-17
Pressure gradient source: uncorrected Ubar = 1, pressure gradient = 0.119882
ExecutionTime = 24.46 s  ClockTime = 25 s

Courant Number mean: 0.2 max: 0.299582
Time = 9.91

PIMPLE: iteration 1
GAMG:  Solving for p, Initial residual = 0.635881, Final residual = 0.0111857, No Iterations 1
time step continuity errors : sum local = 1.3023e-17, global = -8.8235e-20, cumulative = -6.44477e-17
Pressure gradient source: uncorrected Ubar = 1, pressure gradient = 0.119882
GAMG:  Solving for p, Initial residual = 0.403245, Final residual = 0.00715402, No Iterations 1
time step continuity errors : sum local = 1.30048e-17, global = 1.1008e-19, cumulative = -6.43376e-17
Pressure gradient source: uncorrected Ubar = 1, pressure gradient = 0.119882
GAMG:  Solving for p, Initial residual = 0.408048, Final residual = 9.01757e-07, No Iterations 8
time step continuity errors : sum local = 1.30715e-17, global = 4.65207e-20, cumulative = -6.42911e-17
Pressure gradient source: uncorrected Ubar = 1, pressure gradient = 0.119882
ExecutionTime = 24.47 s  ClockTime = 25 s

Courant Number mean: 0.2 max: 0.299582
Time = 9.915

PIMPLE: iteration 1
GAMG:  Solving for p, Initial residual = 0.648738, Final residual = 0.011967, No Iterations 1
time step continuity errors : sum local = 1.27632e-17, global = 7.99092e-20, cumulative = -6.42112e-17
Pressure gradient source: uncorrected Ubar = 1, pressure gradient = 0.119882
GAMG:  Solving for p, Initial residual = 0.394252, Final residual = 0.0067941, No Iterations 1
time step continuity errors : sum local = 1.30516e-17, global = 3.47237e-20, cumulative = -6.41765e-17
Pressure gradient source: uncorrected Ubar = 1, pressure gradient = 0.119882
GAMG:  Solving for p, Initial residual = 0.390703, Final residual = 2.11141e-07, No Iterations 10
time step continuity errors : sum local = 1.331e-17, global = 2.75696e-19, cumulative = -6.39008e-17
Pressure gradient source: uncorrected Ubar = 1, pressure gradient = 0.119882
ExecutionTime = 24.49 s  ClockTime = 25 s

Courant Number mean: 0.2 max: 0.299582
Time = 9.92

PIMPLE: iteration 1
GAMG:  Solving for p, Initial residual = 0.653138, Final residual = 0.0114808, No Iterations 1
time step continuity errors : sum local = 1.30706e-17, global = 1.46116e-19, cumulative = -6.37546e-17
Pressure gradient source: uncorrected Ubar = 1, pressure gradient = 0.119882
GAMG:  Solving for p, Initial residual = 0.400102, Final residual = 0.00643534, No Iterations 1
time step continuity errors : sum local = 1.29091e-17, global = -5.21631e-21, cumulative = -6.37599e-17
Pressure gradient source: uncorrected Ubar = 1, pressure gradient = 0.119881
GAMG:  Solving for p, Initial residual = 0.415041, Final residual = 6.40752e-07, No Iterations 10
time step continuity errors : sum local = 1.30906e-17, global = -8.23562e-20, cumulative = -6.38422e-17
Pressure gradient source: uncorrected Ubar = 1, pressure gradient = 0.119881
ExecutionTime = 24.5 s  ClockTime = 25 s

Courant Number mean: 0.2 max: 0.299582
Time = 9.925

PIMPLE: iteration 1
GAMG:  Solving for p, Initial residual = 0.647915, Final residual = 0.0109301, No Iterations 1
time step continuity errors : sum local = 1.30787e-17, global = -2.04493e-19, cumulative = -6.40467e-17
Pressure gradient source: uncorrected Ubar = 1, pressure gradient = 0.119881
GAMG:  Solving for p, Initial residual = 0.399661, Final residual = 0.00689338, No Iterations 1
time step continuity errors : sum local = 1.29682e-17, global = -1.59782e-19, cumulative = -6.42065e-17
Pressure gradient source: uncorrected Ubar = 1, pressure gradient = 0.119881
GAMG:  Solving for p, Initial residual = 0.399864, Final residual = 7.47082e-07, No Iterations 10
time step continuity errors : sum local = 1.30147e-17, global = -1.2393e-19, cumulative = -6.43304e-17
Pressure gradient source: uncorrected Ubar = 1, pressure gradient = 0.119881
ExecutionTime = 24.51 s  ClockTime = 25 s

Courant Number mean: 0.2 max: 0.299582
Time = 9.93

PIMPLE: iteration 1
GAMG:  Solving for p, Initial residual = 0.649121, Final residual = 0.0109336, No Iterations 1
time step continuity errors : sum local = 1.30313e-17, global = -1.19385e-19, cumulative = -6.44498e-17
Pressure gradient source: uncorrected Ubar = 1, pressure gradient = 0.119881
GAMG:  Solving for p, Initial residual = 0.402574, Final residual = 0.00760242, No Iterations 1
time step continuity errors : sum local = 1.31331e-17, global = -1.84351e-19, cumulative = -6.46342e-17
Pressure gradient source: uncorrected Ubar = 1, pressure gradient = 0.119881
GAMG:  Solving for p, Initial residual = 0.403825, Final residual = 6.72735e-07, No Iterations 9
time step continuity errors : sum local = 1.30591e-17, global = -5.84731e-20, cumulative = -6.46926e-17
Pressure gradient source: uncorrected Ubar = 1, pressure gradient = 0.119881
ExecutionTime = 24.52 s  ClockTime = 25 s

Courant Number mean: 0.2 max: 0.299582
Time = 9.935

PIMPLE: iteration 1
GAMG:  Solving for p, Initial residual = 0.63279, Final residual = 0.0123575, No Iterations 1
time step continuity errors : sum local = 1.32449e-17, global = -6.9628e-21, cumulative = -6.46996e-17
Pressure gradient source: uncorrected Ubar = 1, pressure gradient = 0.119881
GAMG:  Solving for p, Initial residual = 0.410721, Final residual = 0.00866445, No Iterations 1
time step continuity errors : sum local = 1.31477e-17, global = -6.89224e-20, cumulative = -6.47685e-17
Pressure gradient source: uncorrected Ubar = 1, pressure gradient = 0.119881
GAMG:  Solving for p, Initial residual = 0.393465, Final residual = 2.95322e-07, No Iterations 10
time step continuity errors : sum local = 1.31547e-17, global = 8.36828e-20, cumulative = -6.46848e-17
Pressure gradient source: uncorrected Ubar = 1, pressure gradient = 0.119881
ExecutionTime = 24.53 s  ClockTime = 25 s

Courant Number mean: 0.2 max: 0.299583
Time = 9.94

PIMPLE: iteration 1
GAMG:  Solving for p, Initial residual = 0.653141, Final residual = 0.0153236, No Iterations 1
time step continuity errors : sum local = 1.32221e-17, global = 1.04822e-19, cumulative = -6.458e-17
Pressure gradient source: uncorrected Ubar = 1, pressure gradient = 0.119881
GAMG:  Solving for p, Initial residual = 0.411671, Final residual = 0.008163, No Iterations 1
time step continuity errors : sum local = 1.31655e-17, global = 1.65986e-19, cumulative = -6.4414e-17
Pressure gradient source: uncorrected Ubar = 1, pressure gradient = 0.119881
GAMG:  Solving for p, Initial residual = 0.406826, Final residual = 8.27113e-07, No Iterations 11
time step continuity errors : sum local = 1.30547e-17, global = 4.86787e-20, cumulative = -6.43653e-17
Pressure gradient source: uncorrected Ubar = 1, pressure gradient = 0.119881
ExecutionTime = 24.54 s  ClockTime = 25 s

Courant Number mean: 0.2 max: 0.299583
Time = 9.945

PIMPLE: iteration 1
GAMG:  Solving for p, Initial residual = 0.659559, Final residual = 0.0132265, No Iterations 1
time step continuity errors : sum local = 1.31403e-17, global = 8.80347e-20, cumulative = -6.42773e-17
Pressure gradient source: uncorrected Ubar = 1, pressure gradient = 0.119881
GAMG:  Solving for p, Initial residual = 0.40972, Final residual = 0.0083656, No Iterations 1
time step continuity errors : sum local = 1.33217e-17, global = 1.10933e-19, cumulative = -6.41664e-17
Pressure gradient source: uncorrected Ubar = 1, pressure gradient = 0.119881
GAMG:  Solving for p, Initial residual = 0.40873, Final residual = 9.39242e-07, No Iterations 9
time step continuity errors : sum local = 1.30446e-17, global = -7.35112e-20, cumulative = -6.42399e-17
Pressure gradient source: uncorrected Ubar = 1, pressure gradient = 0.119881
ExecutionTime = 24.56 s  ClockTime = 25 s

Courant Number mean: 0.2 max: 0.299583
Time = 9.95

PIMPLE: iteration 1
GAMG:  Solving for p, Initial residual = 0.652781, Final residual = 0.0125059, No Iterations 1
time step continuity errors : sum local = 1.2735e-17, global = -2.40492e-19, cumulative = -6.44804e-17
Pressure gradient source: uncorrected Ubar = 1, pressure gradient = 0.119881
GAMG:  Solving for p, Initial residual = 0.410083, Final residual = 0.00723761, No Iterations 1
time step continuity errors : sum local = 1.30561e-17, global = -1.01003e-19, cumulative = -6.45814e-17
Pressure gradient source: uncorrected Ubar = 1, pressure gradient = 0.119881
GAMG:  Solving for p, Initial residual = 0.403681, Final residual = 3.2732e-07, No Iterations 9
time step continuity errors : sum local = 1.30887e-17, global = -1.31417e-19, cumulative = -6.47128e-17
Pressure gradient source: uncorrected Ubar = 1, pressure gradient = 0.119881
ExecutionTime = 24.57 s  ClockTime = 25 s

Courant Number mean: 0.2 max: 0.299583
Time = 9.955

PIMPLE: iteration 1
GAMG:  Solving for p, Initial residual = 0.667697, Final residual = 0.01213, No Iterations 1
time step continuity errors : sum local = 1.32899e-17, global = -1.14661e-20, cumulative = -6.47243e-17
Pressure gradient source: uncorrected Ubar = 1, pressure gradient = 0.119881
GAMG:  Solving for p, Initial residual = 0.408782, Final residual = 0.00729599, No Iterations 1
time step continuity errors : sum local = 1.33099e-17, global = -8.35225e-20, cumulative = -6.48078e-17
Pressure gradient source: uncorrected Ubar = 1, pressure gradient = 0.119881
GAMG:  Solving for p, Initial residual = 0.390362, Final residual = 5.2432e-07, No Iterations 9
time step continuity errors : sum local = 1.33001e-17, global = -1.23661e-19, cumulative = -6.49314e-17
Pressure gradient source: uncorrected Ubar = 1, pressure gradient = 0.119881
ExecutionTime = 24.58 s  ClockTime = 25 s

Courant Number mean: 0.2 max: 0.299583
Time = 9.96

PIMPLE: iteration 1
GAMG:  Solving for p, Initial residual = 0.652071, Final residual = 0.0138879, No Iterations 1
time step continuity errors : sum local = 1.30273e-17, global = -4.29014e-20, cumulative = -6.49743e-17
Pressure gradient source: uncorrected Ubar = 1, pressure gradient = 0.119881
GAMG:  Solving for p, Initial residual = 0.406799, Final residual = 0.00718673, No Iterations 1
time step continuity errors : sum local = 1.31029e-17, global = 9.09394e-20, cumulative = -6.48834e-17
Pressure gradient source: uncorrected Ubar = 1, pressure gradient = 0.119881
GAMG:  Solving for p, Initial residual = 0.410179, Final residual = 2.48881e-07, No Iterations 10
time step continuity errors : sum local = 1.33095e-17, global = 5.35645e-20, cumulative = -6.48298e-17
Pressure gradient source: uncorrected Ubar = 1, pressure gradient = 0.11988
ExecutionTime = 24.6 s  ClockTime = 25 s

Courant Number mean: 0.2 max: 0.299584
Time = 9.965

PIMPLE: iteration 1
GAMG:  Solving for p, Initial residual = 0.66619, Final residual = 0.0113904, No Iterations 1
time step continuity errors : sum local = 1.30775e-17, global = 1.44546e-20, cumulative = -6.48154e-17
Pressure gradient source: uncorrected Ubar = 1, pressure gradient = 0.11988
GAMG:  Solving for p, Initial residual = 0.386081, Final residual = 0.00798648, No Iterations 1
time step continuity errors : sum local = 1.32654e-17, global = -9.9937e-20, cumulative = -6.49153e-17
Pressure gradient source: uncorrected Ubar = 1, pressure gradient = 0.11988
GAMG:  Solving for p, Initial residual = 0.387288, Final residual = 8.48764e-07, No Iterations 9
time step continuity errors : sum local = 1.31374e-17, global = 5.7826e-20, cumulative = -6.48575e-17
Pressure gradient source: uncorrected Ubar = 1, pressure gradient = 0.11988
ExecutionTime = 24.61 s  ClockTime = 25 s

Courant Number mean: 0.2 max: 0.299584
Time = 9.97

PIMPLE: iteration 1
GAMG:  Solving for p, Initial residual = 0.677533, Final residual = 0.0129453, No Iterations 1
time step continuity errors : sum local = 1.28752e-17, global = -1.13854e-20, cumulative = -6.48689e-17
Pressure gradient source: uncorrected Ubar = 1, pressure gradient = 0.11988
GAMG:  Solving for p, Initial residual = 0.39955, Final residual = 0.00707282, No Iterations 1
time step continuity errors : sum local = 1.32397e-17, global = 1.27532e-19, cumulative = -6.47414e-17
Pressure gradient source: uncorrected Ubar = 1, pressure gradient = 0.11988
GAMG:  Solving for p, Initial residual = 0.396873, Final residual = 8.3893e-07, No Iterations 9
time step continuity errors : sum local = 1.29117e-17, global = -2.97844e-20, cumulative = -6.47711e-17
Pressure gradient source: uncorrected Ubar = 1, pressure gradient = 0.11988
ExecutionTime = 24.62 s  ClockTime = 25 s

Courant Number mean: 0.2 max: 0.299584
Time = 9.975

PIMPLE: iteration 1
GAMG:  Solving for p, Initial residual = 0.678019, Final residual = 0.0124662, No Iterations 1
time step continuity errors : sum local = 1.29663e-17, global = 9.51522e-20, cumulative = -6.4676e-17
Pressure gradient source: uncorrected Ubar = 1, pressure gradient = 0.11988
GAMG:  Solving for p, Initial residual = 0.400981, Final residual = 0.00623014, No Iterations 1
time step continuity errors : sum local = 1.3169e-17, global = 2.39949e-19, cumulative = -6.4436e-17
Pressure gradient source: uncorrected Ubar = 1, pressure gradient = 0.11988
GAMG:  Solving for p, Initial residual = 0.393119, Final residual = 8.21529e-08, No Iterations 9
time step continuity errors : sum local = 1.27374e-17, global = 8.33563e-20, cumulative = -6.43527e-17
Pressure gradient source: uncorrected Ubar = 1, pressure gradient = 0.11988
ExecutionTime = 24.64 s  ClockTime = 25 s

Courant Number mean: 0.2 max: 0.299584
Time = 9.98

PIMPLE: iteration 1
GAMG:  Solving for p, Initial residual = 0.652498, Final residual = 0.0127634, No Iterations 1
time step continuity errors : sum local = 1.30031e-17, global = 4.76347e-20, cumulative = -6.4305e-17
Pressure gradient source: uncorrected Ubar = 1, pressure gradient = 0.11988
GAMG:  Solving for p, Initial residual = 0.394128, Final residual = 0.0067364, No Iterations 1
time step continuity errors : sum local = 1.30914e-17, global = 7.64964e-20, cumulative = -6.42285e-17
Pressure gradient source: uncorrected Ubar = 1, pressure gradient = 0.11988
GAMG:  Solving for p, Initial residual = 0.393548, Final residual = 4.08217e-07, No Iterations 10
time step continuity errors : sum local = 1.30752e-17, global = -5.3236e-20, cumulative = -6.42818e-17
Pressure gradient source: uncorrected Ubar = 1, pressure gradient = 0.11988
ExecutionTime = 24.65 s  ClockTime = 25 s

Courant Number mean: 0.2 max: 0.299584
Time = 9.985

PIMPLE: iteration 1
GAMG:  Solving for p, Initial residual = 0.640804, Final residual = 0.014774, No Iterations 1
time step continuity errors : sum local = 1.30706e-17, global = -2.01637e-20, cumulative = -6.43019e-17
Pressure gradient source: uncorrected Ubar = 1, pressure gradient = 0.11988
GAMG:  Solving for p, Initial residual = 0.420883, Final residual = 0.00745023, No Iterations 1
time step continuity errors : sum local = 1.27535e-17, global = 1.69327e-20, cumulative = -6.4285e-17
Pressure gradient source: uncorrected Ubar = 1, pressure gradient = 0.11988
GAMG:  Solving for p, Initial residual = 0.39964, Final residual = 5.079e-07, No Iterations 9
time step continuity errors : sum local = 1.30953e-17, global = -1.2857e-19, cumulative = -6.44136e-17
Pressure gradient source: uncorrected Ubar = 1, pressure gradient = 0.11988
ExecutionTime = 24.66 s  ClockTime = 25 s

Courant Number mean: 0.2 max: 0.299584
Time = 9.99

PIMPLE: iteration 1
GAMG:  Solving for p, Initial residual = 0.64238, Final residual = 0.0136513, No Iterations 1
time step continuity errors : sum local = 1.29754e-17, global = 1.47251e-20, cumulative = -6.43989e-17
Pressure gradient source: uncorrected Ubar = 1, pressure gradient = 0.11988
GAMG:  Solving for p, Initial residual = 0.415766, Final residual = 0.0074489, No Iterations 1
time step continuity errors : sum local = 1.31557e-17, global = 3.76353e-20, cumulative = -6.43612e-17
Pressure gradient source: uncorrected Ubar = 1, pressure gradient = 0.11988
GAMG:  Solving for p, Initial residual = 0.401325, Final residual = 7.69656e-07, No Iterations 9
time step continuity errors : sum local = 1.30051e-17, global = -8.84187e-20, cumulative = -6.44496e-17
Pressure gradient source: uncorrected Ubar = 1, pressure gradient = 0.11988
ExecutionTime = 24.67 s  ClockTime = 25 s

Courant Number mean: 0.2 max: 0.299584
Time = 9.995

PIMPLE: iteration 1
GAMG:  Solving for p, Initial residual = 0.652446, Final residual = 0.0118995, No Iterations 1
time step continuity errors : sum local = 1.28534e-17, global = 3.95321e-20, cumulative = -6.44101e-17
Pressure gradient source: uncorrected Ubar = 1, pressure gradient = 0.11988
GAMG:  Solving for p, Initial residual = 0.387211, Final residual = 0.00689453, No Iterations 1
time step continuity errors : sum local = 1.27626e-17, global = -1.06028e-19, cumulative = -6.45161e-17
Pressure gradient source: uncorrected Ubar = 1, pressure gradient = 0.11988
GAMG:  Solving for p, Initial residual = 0.388783, Final residual = 6.04139e-07, No Iterations 9
time step continuity errors : sum local = 1.29904e-17, global = -3.52154e-19, cumulative = -6.48683e-17
Pressure gradient source: uncorrected Ubar = 1, pressure gradient = 0.11988
ExecutionTime = 24.69 s  ClockTime = 25 s

Courant Number mean: 0.2 max: 0.299585
Time = 10

PIMPLE: iteration 1
GAMG:  Solving for p, Initial residual = 0.632032, Final residual = 0.0114855, No Iterations 1
time step continuity errors : sum local = 1.30602e-17, global = -1.16453e-20, cumulative = -6.48799e-17
Pressure gradient source: uncorrected Ubar = 1, pressure gradient = 0.11988
GAMG:  Solving for p, Initial residual = 0.410916, Final residual = 0.00669618, No Iterations 1
time step continuity errors : sum local = 1.29142e-17, global = 5.12514e-20, cumulative = -6.48287e-17
Pressure gradient source: uncorrected Ubar = 1, pressure gradient = 0.11988
GAMG:  Solving for p, Initial residual = 0.393819, Final residual = 7.02214e-07, No Iterations 10
time step continuity errors : sum local = 1.32122e-17, global = -2.27343e-19, cumulative = -6.5056e-17
Pressure gradient source: uncorrected Ubar = 1, pressure gradient = 0.11988
ExecutionTime = 24.71 s  ClockTime = 25 s

End

